#\#CIF_2.0
data_CELSLC

# Crystal data
_pd_phase_name                         'Super Cell'
_cell_length_a                         63.567398
_cell_length_b                         63.567398
_cell_length_c                         8.950000
_cell_angle_alpha                      90.0000
_cell_angle_beta                       90.0000
_cell_angle_gamma                      90.0000
_symmetry_space_group_name_H-M_alt     'P 1'
_symmetry_Int_Tables_number            1

# Symmetry operations
loop_
    _space_group_symop_id
    _space_group_symop_operation_xyz
    1    'x,y,z'

# Atomic types
loop_
    _atom_site_type_symbol
    _atom_type_oxidation_number
    Mg  0.0000
    Fe  0.0000
    Ca  0.0000
    Si  0.0000
    O  0.0000

# Atomic sites
loop_
    _atom_site_label
    _atom_site_type_symbol
    _atom_site_occupancy
    _atom_site_fract_x
    _atom_site_fract_y
    _atom_site_fract_z
    _atom_site_thermal_displace_type
    _atom_site_U_iso_or_equiv
    Mg1  Mg  0.7200  0.314650  0.002180  0.654800  Uiso  0.007781
    Mg1  Mg  0.7200  0.168990  0.047960  0.654800  Uiso  0.007781
    Mg1  Mg  0.7200  0.023330  0.093750  0.654800  Uiso  0.007781
    Mg1  Mg  0.7200  0.508860  0.023120  0.654800  Uiso  0.007781
    Mg1  Mg  0.7200  0.363200  0.068910  0.654800  Uiso  0.007781
    Mg1  Mg  0.7200  0.217540  0.114700  0.654800  Uiso  0.007781
    Mg1  Mg  0.7200  0.071880  0.160480  0.654800  Uiso  0.007781
    Mg1  Mg  0.7200  0.703080  0.044070  0.654800  Uiso  0.007781
    Mg1  Mg  0.7200  0.557420  0.089860  0.654800  Uiso  0.007781
    Mg1  Mg  0.7200  0.411760  0.135640  0.654800  Uiso  0.007781
    Mg1  Mg  0.7200  0.266100  0.181430  0.654800  Uiso  0.007781
    Mg1  Mg  0.7200  0.120430  0.227210  0.654800  Uiso  0.007781
    Mg1  Mg  0.7200  0.897300  0.065020  0.654800  Uiso  0.007781
    Mg1  Mg  0.7200  0.751630  0.110800  0.654800  Uiso  0.007781
    Mg1  Mg  0.7200  0.605970  0.156590  0.654800  Uiso  0.007781
    Mg1  Mg  0.7200  0.460310  0.202370  0.654800  Uiso  0.007781
    Mg1  Mg  0.7200  0.314650  0.248160  0.654800  Uiso  0.007781
    Mg1  Mg  0.7200  0.168990  0.293950  0.654800  Uiso  0.007781
    Mg1  Mg  0.7200  0.023330  0.339730  0.654800  Uiso  0.007781
    Mg1  Mg  0.7200  0.945850  0.131750  0.654800  Uiso  0.007781
    Mg1  Mg  0.7200  0.800190  0.177530  0.654800  Uiso  0.007781
    Mg1  Mg  0.7200  0.654530  0.223320  0.654800  Uiso  0.007781
    Mg1  Mg  0.7200  0.508860  0.269110  0.654800  Uiso  0.007781
    Mg1  Mg  0.7200  0.363200  0.314890  0.654800  Uiso  0.007781
    Mg1  Mg  0.7200  0.217540  0.360680  0.654800  Uiso  0.007781
    Mg1  Mg  0.7200  0.071880  0.406460  0.654800  Uiso  0.007781
    Mg1  Mg  0.7200  0.994400  0.198480  0.654800  Uiso  0.007781
    Mg1  Mg  0.7200  0.848740  0.244270  0.654800  Uiso  0.007781
    Mg1  Mg  0.7200  0.703080  0.290050  0.654800  Uiso  0.007781
    Mg1  Mg  0.7200  0.557420  0.335840  0.654800  Uiso  0.007781
    Mg1  Mg  0.7200  0.411760  0.381620  0.654800  Uiso  0.007781
    Mg1  Mg  0.7200  0.266100  0.427410  0.654800  Uiso  0.007781
    Mg1  Mg  0.7200  0.120430  0.473200  0.654800  Uiso  0.007781
    Mg1  Mg  0.7200  0.897300  0.311000  0.654800  Uiso  0.007781
    Mg1  Mg  0.7200  0.751630  0.356780  0.654800  Uiso  0.007781
    Mg1  Mg  0.7200  0.605970  0.402570  0.654800  Uiso  0.007781
    Mg1  Mg  0.7200  0.460310  0.448360  0.654800  Uiso  0.007781
    Mg1  Mg  0.7200  0.314650  0.494140  0.654800  Uiso  0.007781
    Mg1  Mg  0.7200  0.168990  0.539930  0.654800  Uiso  0.007781
    Mg1  Mg  0.7200  0.023330  0.585710  0.654800  Uiso  0.007781
    Mg1  Mg  0.7200  0.945850  0.377730  0.654800  Uiso  0.007781
    Mg1  Mg  0.7200  0.800190  0.423520  0.654800  Uiso  0.007781
    Mg1  Mg  0.7200  0.654530  0.469300  0.654800  Uiso  0.007781
    Mg1  Mg  0.7200  0.508860  0.515090  0.654800  Uiso  0.007781
    Mg1  Mg  0.7200  0.363200  0.560870  0.654800  Uiso  0.007781
    Mg1  Mg  0.7200  0.217540  0.606660  0.654800  Uiso  0.007781
    Mg1  Mg  0.7200  0.071880  0.652450  0.654800  Uiso  0.007781
    Mg1  Mg  0.7200  0.994400  0.444460  0.654800  Uiso  0.007781
    Mg1  Mg  0.7200  0.848740  0.490250  0.654800  Uiso  0.007781
    Mg1  Mg  0.7200  0.703080  0.536030  0.654800  Uiso  0.007781
    Mg1  Mg  0.7200  0.557420  0.581820  0.654800  Uiso  0.007781
    Mg1  Mg  0.7200  0.411760  0.627610  0.654800  Uiso  0.007781
    Mg1  Mg  0.7200  0.266100  0.673390  0.654800  Uiso  0.007781
    Mg1  Mg  0.7200  0.120430  0.719180  0.654800  Uiso  0.007781
    Mg1  Mg  0.7200  0.897300  0.556980  0.654800  Uiso  0.007781
    Mg1  Mg  0.7200  0.751630  0.602770  0.654800  Uiso  0.007781
    Mg1  Mg  0.7200  0.605970  0.648550  0.654800  Uiso  0.007781
    Mg1  Mg  0.7200  0.460310  0.694340  0.654800  Uiso  0.007781
    Mg1  Mg  0.7200  0.314650  0.740120  0.654800  Uiso  0.007781
    Mg1  Mg  0.7200  0.168990  0.785910  0.654800  Uiso  0.007781
    Mg1  Mg  0.7200  0.023330  0.831700  0.654800  Uiso  0.007781
    Mg1  Mg  0.7200  0.945850  0.623710  0.654800  Uiso  0.007781
    Mg1  Mg  0.7200  0.800190  0.669500  0.654800  Uiso  0.007781
    Mg1  Mg  0.7200  0.654530  0.715280  0.654800  Uiso  0.007781
    Mg1  Mg  0.7200  0.508860  0.761070  0.654800  Uiso  0.007781
    Mg1  Mg  0.7200  0.363200  0.806860  0.654800  Uiso  0.007781
    Mg1  Mg  0.7200  0.217540  0.852640  0.654800  Uiso  0.007781
    Mg1  Mg  0.7200  0.071880  0.898430  0.654800  Uiso  0.007781
    Mg1  Mg  0.7200  0.994400  0.690440  0.654800  Uiso  0.007781
    Mg1  Mg  0.7200  0.848740  0.736230  0.654800  Uiso  0.007781
    Mg1  Mg  0.7200  0.703080  0.782020  0.654800  Uiso  0.007781
    Mg1  Mg  0.7200  0.557420  0.827800  0.654800  Uiso  0.007781
    Mg1  Mg  0.7200  0.411760  0.873590  0.654800  Uiso  0.007781
    Mg1  Mg  0.7200  0.266100  0.919370  0.654800  Uiso  0.007781
    Mg1  Mg  0.7200  0.120430  0.965160  0.654800  Uiso  0.007781
    Mg1  Mg  0.7200  0.897300  0.802960  0.654800  Uiso  0.007781
    Mg1  Mg  0.7200  0.751630  0.848750  0.654800  Uiso  0.007781
    Mg1  Mg  0.7200  0.605970  0.894530  0.654800  Uiso  0.007781
    Mg1  Mg  0.7200  0.460310  0.940320  0.654800  Uiso  0.007781
    Mg1  Mg  0.7200  0.314650  0.986110  0.654800  Uiso  0.007781
    Mg1  Mg  0.7200  0.945850  0.869690  0.654800  Uiso  0.007781
    Mg1  Mg  0.7200  0.800190  0.915480  0.654800  Uiso  0.007781
    Mg1  Mg  0.7200  0.654530  0.961270  0.654800  Uiso  0.007781
    Mg1  Mg  0.7200  0.994400  0.936430  0.654800  Uiso  0.007781
    Mg1  Mg  0.7200  0.848740  0.982210  0.654800  Uiso  0.007781
    Fe1  Fe  0.2800  0.314650  0.002180  0.654800  Uiso  0.007781
    Fe1  Fe  0.2800  0.168990  0.047960  0.654800  Uiso  0.007781
    Fe1  Fe  0.2800  0.023330  0.093750  0.654800  Uiso  0.007781
    Fe1  Fe  0.2800  0.508860  0.023120  0.654800  Uiso  0.007781
    Fe1  Fe  0.2800  0.363200  0.068910  0.654800  Uiso  0.007781
    Fe1  Fe  0.2800  0.217540  0.114700  0.654800  Uiso  0.007781
    Fe1  Fe  0.2800  0.071880  0.160480  0.654800  Uiso  0.007781
    Fe1  Fe  0.2800  0.703080  0.044070  0.654800  Uiso  0.007781
    Fe1  Fe  0.2800  0.557420  0.089860  0.654800  Uiso  0.007781
    Fe1  Fe  0.2800  0.411760  0.135640  0.654800  Uiso  0.007781
    Fe1  Fe  0.2800  0.266100  0.181430  0.654800  Uiso  0.007781
    Fe1  Fe  0.2800  0.120430  0.227210  0.654800  Uiso  0.007781
    Fe1  Fe  0.2800  0.897300  0.065020  0.654800  Uiso  0.007781
    Fe1  Fe  0.2800  0.751630  0.110800  0.654800  Uiso  0.007781
    Fe1  Fe  0.2800  0.605970  0.156590  0.654800  Uiso  0.007781
    Fe1  Fe  0.2800  0.460310  0.202370  0.654800  Uiso  0.007781
    Fe1  Fe  0.2800  0.314650  0.248160  0.654800  Uiso  0.007781
    Fe1  Fe  0.2800  0.168990  0.293950  0.654800  Uiso  0.007781
    Fe1  Fe  0.2800  0.023330  0.339730  0.654800  Uiso  0.007781
    Fe1  Fe  0.2800  0.945850  0.131750  0.654800  Uiso  0.007781
    Fe1  Fe  0.2800  0.800190  0.177530  0.654800  Uiso  0.007781
    Fe1  Fe  0.2800  0.654530  0.223320  0.654800  Uiso  0.007781
    Fe1  Fe  0.2800  0.508860  0.269110  0.654800  Uiso  0.007781
    Fe1  Fe  0.2800  0.363200  0.314890  0.654800  Uiso  0.007781
    Fe1  Fe  0.2800  0.217540  0.360680  0.654800  Uiso  0.007781
    Fe1  Fe  0.2800  0.071880  0.406460  0.654800  Uiso  0.007781
    Fe1  Fe  0.2800  0.994400  0.198480  0.654800  Uiso  0.007781
    Fe1  Fe  0.2800  0.848740  0.244270  0.654800  Uiso  0.007781
    Fe1  Fe  0.2800  0.703080  0.290050  0.654800  Uiso  0.007781
    Fe1  Fe  0.2800  0.557420  0.335840  0.654800  Uiso  0.007781
    Fe1  Fe  0.2800  0.411760  0.381620  0.654800  Uiso  0.007781
    Fe1  Fe  0.2800  0.266100  0.427410  0.654800  Uiso  0.007781
    Fe1  Fe  0.2800  0.120430  0.473200  0.654800  Uiso  0.007781
    Fe1  Fe  0.2800  0.897300  0.311000  0.654800  Uiso  0.007781
    Fe1  Fe  0.2800  0.751630  0.356780  0.654800  Uiso  0.007781
    Fe1  Fe  0.2800  0.605970  0.402570  0.654800  Uiso  0.007781
    Fe1  Fe  0.2800  0.460310  0.448360  0.654800  Uiso  0.007781
    Fe1  Fe  0.2800  0.314650  0.494140  0.654800  Uiso  0.007781
    Fe1  Fe  0.2800  0.168990  0.539930  0.654800  Uiso  0.007781
    Fe1  Fe  0.2800  0.023330  0.585710  0.654800  Uiso  0.007781
    Fe1  Fe  0.2800  0.945850  0.377730  0.654800  Uiso  0.007781
    Fe1  Fe  0.2800  0.800190  0.423520  0.654800  Uiso  0.007781
    Fe1  Fe  0.2800  0.654530  0.469300  0.654800  Uiso  0.007781
    Fe1  Fe  0.2800  0.508860  0.515090  0.654800  Uiso  0.007781
    Fe1  Fe  0.2800  0.363200  0.560870  0.654800  Uiso  0.007781
    Fe1  Fe  0.2800  0.217540  0.606660  0.654800  Uiso  0.007781
    Fe1  Fe  0.2800  0.071880  0.652450  0.654800  Uiso  0.007781
    Fe1  Fe  0.2800  0.994400  0.444460  0.654800  Uiso  0.007781
    Fe1  Fe  0.2800  0.848740  0.490250  0.654800  Uiso  0.007781
    Fe1  Fe  0.2800  0.703080  0.536030  0.654800  Uiso  0.007781
    Fe1  Fe  0.2800  0.557420  0.581820  0.654800  Uiso  0.007781
    Fe1  Fe  0.2800  0.411760  0.627610  0.654800  Uiso  0.007781
    Fe1  Fe  0.2800  0.266100  0.673390  0.654800  Uiso  0.007781
    Fe1  Fe  0.2800  0.120430  0.719180  0.654800  Uiso  0.007781
    Fe1  Fe  0.2800  0.897300  0.556980  0.654800  Uiso  0.007781
    Fe1  Fe  0.2800  0.751630  0.602770  0.654800  Uiso  0.007781
    Fe1  Fe  0.2800  0.605970  0.648550  0.654800  Uiso  0.007781
    Fe1  Fe  0.2800  0.460310  0.694340  0.654800  Uiso  0.007781
    Fe1  Fe  0.2800  0.314650  0.740120  0.654800  Uiso  0.007781
    Fe1  Fe  0.2800  0.168990  0.785910  0.654800  Uiso  0.007781
    Fe1  Fe  0.2800  0.023330  0.831700  0.654800  Uiso  0.007781
    Fe1  Fe  0.2800  0.945850  0.623710  0.654800  Uiso  0.007781
    Fe1  Fe  0.2800  0.800190  0.669500  0.654800  Uiso  0.007781
    Fe1  Fe  0.2800  0.654530  0.715280  0.654800  Uiso  0.007781
    Fe1  Fe  0.2800  0.508860  0.761070  0.654800  Uiso  0.007781
    Fe1  Fe  0.2800  0.363200  0.806860  0.654800  Uiso  0.007781
    Fe1  Fe  0.2800  0.217540  0.852640  0.654800  Uiso  0.007781
    Fe1  Fe  0.2800  0.071880  0.898430  0.654800  Uiso  0.007781
    Fe1  Fe  0.2800  0.994400  0.690440  0.654800  Uiso  0.007781
    Fe1  Fe  0.2800  0.848740  0.736230  0.654800  Uiso  0.007781
    Fe1  Fe  0.2800  0.703080  0.782020  0.654800  Uiso  0.007781
    Fe1  Fe  0.2800  0.557420  0.827800  0.654800  Uiso  0.007781
    Fe1  Fe  0.2800  0.411760  0.873590  0.654800  Uiso  0.007781
    Fe1  Fe  0.2800  0.266100  0.919370  0.654800  Uiso  0.007781
    Fe1  Fe  0.2800  0.120430  0.965160  0.654800  Uiso  0.007781
    Fe1  Fe  0.2800  0.897300  0.802960  0.654800  Uiso  0.007781
    Fe1  Fe  0.2800  0.751630  0.848750  0.654800  Uiso  0.007781
    Fe1  Fe  0.2800  0.605970  0.894530  0.654800  Uiso  0.007781
    Fe1  Fe  0.2800  0.460310  0.940320  0.654800  Uiso  0.007781
    Fe1  Fe  0.2800  0.314650  0.986110  0.654800  Uiso  0.007781
    Fe1  Fe  0.2800  0.945850  0.869690  0.654800  Uiso  0.007781
    Fe1  Fe  0.2800  0.800190  0.915480  0.654800  Uiso  0.007781
    Fe1  Fe  0.2800  0.654530  0.961270  0.654800  Uiso  0.007781
    Fe1  Fe  0.2800  0.994400  0.936430  0.654800  Uiso  0.007781
    Fe1  Fe  0.2800  0.848740  0.982210  0.654800  Uiso  0.007781
    Fe1  Fe  0.7600  0.313740  0.002300  0.018300  Uiso  0.015458
    Fe1  Fe  0.7600  0.168070  0.048090  0.018300  Uiso  0.015458
    Fe1  Fe  0.7600  0.022410  0.093870  0.018300  Uiso  0.015458
    Fe1  Fe  0.7600  0.507950  0.023250  0.018300  Uiso  0.015458
    Fe1  Fe  0.7600  0.362290  0.069030  0.018300  Uiso  0.015458
    Fe1  Fe  0.7600  0.216630  0.114820  0.018300  Uiso  0.015458
    Fe1  Fe  0.7600  0.070970  0.160610  0.018300  Uiso  0.015458
    Fe1  Fe  0.7600  0.702170  0.044190  0.018300  Uiso  0.015458
    Fe1  Fe  0.7600  0.556510  0.089980  0.018300  Uiso  0.015458
    Fe1  Fe  0.7600  0.410840  0.135770  0.018300  Uiso  0.015458
    Fe1  Fe  0.7600  0.265180  0.181550  0.018300  Uiso  0.015458
    Fe1  Fe  0.7600  0.119520  0.227340  0.018300  Uiso  0.015458
    Fe1  Fe  0.7600  0.896380  0.065140  0.018300  Uiso  0.015458
    Fe1  Fe  0.7600  0.750720  0.110930  0.018300  Uiso  0.015458
    Fe1  Fe  0.7600  0.605060  0.156710  0.018300  Uiso  0.015458
    Fe1  Fe  0.7600  0.459400  0.202500  0.018300  Uiso  0.015458
    Fe1  Fe  0.7600  0.313740  0.248280  0.018300  Uiso  0.015458
    Fe1  Fe  0.7600  0.168070  0.294070  0.018300  Uiso  0.015458
    Fe1  Fe  0.7600  0.022410  0.339850  0.018300  Uiso  0.015458
    Fe1  Fe  0.7600  0.944940  0.131870  0.018300  Uiso  0.015458
    Fe1  Fe  0.7600  0.799280  0.177660  0.018300  Uiso  0.015458
    Fe1  Fe  0.7600  0.653610  0.223440  0.018300  Uiso  0.015458
    Fe1  Fe  0.7600  0.507950  0.269230  0.018300  Uiso  0.015458
    Fe1  Fe  0.7600  0.362290  0.315010  0.018300  Uiso  0.015458
    Fe1  Fe  0.7600  0.216630  0.360800  0.018300  Uiso  0.015458
    Fe1  Fe  0.7600  0.070970  0.406590  0.018300  Uiso  0.015458
    Fe1  Fe  0.7600  0.993490  0.198600  0.018300  Uiso  0.015458
    Fe1  Fe  0.7600  0.847830  0.244390  0.018300  Uiso  0.015458
    Fe1  Fe  0.7600  0.702170  0.290170  0.018300  Uiso  0.015458
    Fe1  Fe  0.7600  0.556510  0.335960  0.018300  Uiso  0.015458
    Fe1  Fe  0.7600  0.410840  0.381750  0.018300  Uiso  0.015458
    Fe1  Fe  0.7600  0.265180  0.427530  0.018300  Uiso  0.015458
    Fe1  Fe  0.7600  0.119520  0.473320  0.018300  Uiso  0.015458
    Fe1  Fe  0.7600  0.896380  0.311120  0.018300  Uiso  0.015458
    Fe1  Fe  0.7600  0.750720  0.356910  0.018300  Uiso  0.015458
    Fe1  Fe  0.7600  0.605060  0.402690  0.018300  Uiso  0.015458
    Fe1  Fe  0.7600  0.459400  0.448480  0.018300  Uiso  0.015458
    Fe1  Fe  0.7600  0.313740  0.494260  0.018300  Uiso  0.015458
    Fe1  Fe  0.7600  0.168070  0.540050  0.018300  Uiso  0.015458
    Fe1  Fe  0.7600  0.022410  0.585840  0.018300  Uiso  0.015458
    Fe1  Fe  0.7600  0.944940  0.377850  0.018300  Uiso  0.015458
    Fe1  Fe  0.7600  0.799280  0.423640  0.018300  Uiso  0.015458
    Fe1  Fe  0.7600  0.653610  0.469420  0.018300  Uiso  0.015458
    Fe1  Fe  0.7600  0.507950  0.515210  0.018300  Uiso  0.015458
    Fe1  Fe  0.7600  0.362290  0.561000  0.018300  Uiso  0.015458
    Fe1  Fe  0.7600  0.216630  0.606780  0.018300  Uiso  0.015458
    Fe1  Fe  0.7600  0.070970  0.652570  0.018300  Uiso  0.015458
    Fe1  Fe  0.7600  0.993490  0.444580  0.018300  Uiso  0.015458
    Fe1  Fe  0.7600  0.847830  0.490370  0.018300  Uiso  0.015458
    Fe1  Fe  0.7600  0.702170  0.536160  0.018300  Uiso  0.015458
    Fe1  Fe  0.7600  0.556510  0.581940  0.018300  Uiso  0.015458
    Fe1  Fe  0.7600  0.410840  0.627730  0.018300  Uiso  0.015458
    Fe1  Fe  0.7600  0.265180  0.673510  0.018300  Uiso  0.015458
    Fe1  Fe  0.7600  0.119520  0.719300  0.018300  Uiso  0.015458
    Fe1  Fe  0.7600  0.896380  0.557100  0.018300  Uiso  0.015458
    Fe1  Fe  0.7600  0.750720  0.602890  0.018300  Uiso  0.015458
    Fe1  Fe  0.7600  0.605060  0.648670  0.018300  Uiso  0.015458
    Fe1  Fe  0.7600  0.459400  0.694460  0.018300  Uiso  0.015458
    Fe1  Fe  0.7600  0.313740  0.740250  0.018300  Uiso  0.015458
    Fe1  Fe  0.7600  0.168070  0.786030  0.018300  Uiso  0.015458
    Fe1  Fe  0.7600  0.022410  0.831820  0.018300  Uiso  0.015458
    Fe1  Fe  0.7600  0.944940  0.623830  0.018300  Uiso  0.015458
    Fe1  Fe  0.7600  0.799280  0.669620  0.018300  Uiso  0.015458
    Fe1  Fe  0.7600  0.653610  0.715410  0.018300  Uiso  0.015458
    Fe1  Fe  0.7600  0.507950  0.761190  0.018300  Uiso  0.015458
    Fe1  Fe  0.7600  0.362290  0.806980  0.018300  Uiso  0.015458
    Fe1  Fe  0.7600  0.216630  0.852760  0.018300  Uiso  0.015458
    Fe1  Fe  0.7600  0.070970  0.898550  0.018300  Uiso  0.015458
    Fe1  Fe  0.7600  0.993490  0.690570  0.018300  Uiso  0.015458
    Fe1  Fe  0.7600  0.847830  0.736350  0.018300  Uiso  0.015458
    Fe1  Fe  0.7600  0.702170  0.782140  0.018300  Uiso  0.015458
    Fe1  Fe  0.7600  0.556510  0.827920  0.018300  Uiso  0.015458
    Fe1  Fe  0.7600  0.410840  0.873710  0.018300  Uiso  0.015458
    Fe1  Fe  0.7600  0.265180  0.919500  0.018300  Uiso  0.015458
    Fe1  Fe  0.7600  0.119520  0.965280  0.018300  Uiso  0.015458
    Fe1  Fe  0.7600  0.896380  0.803080  0.018300  Uiso  0.015458
    Fe1  Fe  0.7600  0.750720  0.848870  0.018300  Uiso  0.015458
    Fe1  Fe  0.7600  0.605060  0.894660  0.018300  Uiso  0.015458
    Fe1  Fe  0.7600  0.459400  0.940440  0.018300  Uiso  0.015458
    Fe1  Fe  0.7600  0.313740  0.986230  0.018300  Uiso  0.015458
    Fe1  Fe  0.7600  0.944940  0.869820  0.018300  Uiso  0.015458
    Fe1  Fe  0.7600  0.799280  0.915600  0.018300  Uiso  0.015458
    Fe1  Fe  0.7600  0.653610  0.961390  0.018300  Uiso  0.015458
    Fe1  Fe  0.7600  0.993490  0.936550  0.018300  Uiso  0.015458
    Fe1  Fe  0.7600  0.847830  0.982330  0.018300  Uiso  0.015458
    Ca1  Ca  0.1800  0.313740  0.002300  0.018300  Uiso  0.015458
    Ca1  Ca  0.1800  0.168070  0.048090  0.018300  Uiso  0.015458
    Ca1  Ca  0.1800  0.022410  0.093870  0.018300  Uiso  0.015458
    Ca1  Ca  0.1800  0.507950  0.023250  0.018300  Uiso  0.015458
    Ca1  Ca  0.1800  0.362290  0.069030  0.018300  Uiso  0.015458
    Ca1  Ca  0.1800  0.216630  0.114820  0.018300  Uiso  0.015458
    Ca1  Ca  0.1800  0.070970  0.160610  0.018300  Uiso  0.015458
    Ca1  Ca  0.1800  0.702170  0.044190  0.018300  Uiso  0.015458
    Ca1  Ca  0.1800  0.556510  0.089980  0.018300  Uiso  0.015458
    Ca1  Ca  0.1800  0.410840  0.135770  0.018300  Uiso  0.015458
    Ca1  Ca  0.1800  0.265180  0.181550  0.018300  Uiso  0.015458
    Ca1  Ca  0.1800  0.119520  0.227340  0.018300  Uiso  0.015458
    Ca1  Ca  0.1800  0.896380  0.065140  0.018300  Uiso  0.015458
    Ca1  Ca  0.1800  0.750720  0.110930  0.018300  Uiso  0.015458
    Ca1  Ca  0.1800  0.605060  0.156710  0.018300  Uiso  0.015458
    Ca1  Ca  0.1800  0.459400  0.202500  0.018300  Uiso  0.015458
    Ca1  Ca  0.1800  0.313740  0.248280  0.018300  Uiso  0.015458
    Ca1  Ca  0.1800  0.168070  0.294070  0.018300  Uiso  0.015458
    Ca1  Ca  0.1800  0.022410  0.339850  0.018300  Uiso  0.015458
    Ca1  Ca  0.1800  0.944940  0.131870  0.018300  Uiso  0.015458
    Ca1  Ca  0.1800  0.799280  0.177660  0.018300  Uiso  0.015458
    Ca1  Ca  0.1800  0.653610  0.223440  0.018300  Uiso  0.015458
    Ca1  Ca  0.1800  0.507950  0.269230  0.018300  Uiso  0.015458
    Ca1  Ca  0.1800  0.362290  0.315010  0.018300  Uiso  0.015458
    Ca1  Ca  0.1800  0.216630  0.360800  0.018300  Uiso  0.015458
    Ca1  Ca  0.1800  0.070970  0.406590  0.018300  Uiso  0.015458
    Ca1  Ca  0.1800  0.993490  0.198600  0.018300  Uiso  0.015458
    Ca1  Ca  0.1800  0.847830  0.244390  0.018300  Uiso  0.015458
    Ca1  Ca  0.1800  0.702170  0.290170  0.018300  Uiso  0.015458
    Ca1  Ca  0.1800  0.556510  0.335960  0.018300  Uiso  0.015458
    Ca1  Ca  0.1800  0.410840  0.381750  0.018300  Uiso  0.015458
    Ca1  Ca  0.1800  0.265180  0.427530  0.018300  Uiso  0.015458
    Ca1  Ca  0.1800  0.119520  0.473320  0.018300  Uiso  0.015458
    Ca1  Ca  0.1800  0.896380  0.311120  0.018300  Uiso  0.015458
    Ca1  Ca  0.1800  0.750720  0.356910  0.018300  Uiso  0.015458
    Ca1  Ca  0.1800  0.605060  0.402690  0.018300  Uiso  0.015458
    Ca1  Ca  0.1800  0.459400  0.448480  0.018300  Uiso  0.015458
    Ca1  Ca  0.1800  0.313740  0.494260  0.018300  Uiso  0.015458
    Ca1  Ca  0.1800  0.168070  0.540050  0.018300  Uiso  0.015458
    Ca1  Ca  0.1800  0.022410  0.585840  0.018300  Uiso  0.015458
    Ca1  Ca  0.1800  0.944940  0.377850  0.018300  Uiso  0.015458
    Ca1  Ca  0.1800  0.799280  0.423640  0.018300  Uiso  0.015458
    Ca1  Ca  0.1800  0.653610  0.469420  0.018300  Uiso  0.015458
    Ca1  Ca  0.1800  0.507950  0.515210  0.018300  Uiso  0.015458
    Ca1  Ca  0.1800  0.362290  0.561000  0.018300  Uiso  0.015458
    Ca1  Ca  0.1800  0.216630  0.606780  0.018300  Uiso  0.015458
    Ca1  Ca  0.1800  0.070970  0.652570  0.018300  Uiso  0.015458
    Ca1  Ca  0.1800  0.993490  0.444580  0.018300  Uiso  0.015458
    Ca1  Ca  0.1800  0.847830  0.490370  0.018300  Uiso  0.015458
    Ca1  Ca  0.1800  0.702170  0.536160  0.018300  Uiso  0.015458
    Ca1  Ca  0.1800  0.556510  0.581940  0.018300  Uiso  0.015458
    Ca1  Ca  0.1800  0.410840  0.627730  0.018300  Uiso  0.015458
    Ca1  Ca  0.1800  0.265180  0.673510  0.018300  Uiso  0.015458
    Ca1  Ca  0.1800  0.119520  0.719300  0.018300  Uiso  0.015458
    Ca1  Ca  0.1800  0.896380  0.557100  0.018300  Uiso  0.015458
    Ca1  Ca  0.1800  0.750720  0.602890  0.018300  Uiso  0.015458
    Ca1  Ca  0.1800  0.605060  0.648670  0.018300  Uiso  0.015458
    Ca1  Ca  0.1800  0.459400  0.694460  0.018300  Uiso  0.015458
    Ca1  Ca  0.1800  0.313740  0.740250  0.018300  Uiso  0.015458
    Ca1  Ca  0.1800  0.168070  0.786030  0.018300  Uiso  0.015458
    Ca1  Ca  0.1800  0.022410  0.831820  0.018300  Uiso  0.015458
    Ca1  Ca  0.1800  0.944940  0.623830  0.018300  Uiso  0.015458
    Ca1  Ca  0.1800  0.799280  0.669620  0.018300  Uiso  0.015458
    Ca1  Ca  0.1800  0.653610  0.715410  0.018300  Uiso  0.015458
    Ca1  Ca  0.1800  0.507950  0.761190  0.018300  Uiso  0.015458
    Ca1  Ca  0.1800  0.362290  0.806980  0.018300  Uiso  0.015458
    Ca1  Ca  0.1800  0.216630  0.852760  0.018300  Uiso  0.015458
    Ca1  Ca  0.1800  0.070970  0.898550  0.018300  Uiso  0.015458
    Ca1  Ca  0.1800  0.993490  0.690570  0.018300  Uiso  0.015458
    Ca1  Ca  0.1800  0.847830  0.736350  0.018300  Uiso  0.015458
    Ca1  Ca  0.1800  0.702170  0.782140  0.018300  Uiso  0.015458
    Ca1  Ca  0.1800  0.556510  0.827920  0.018300  Uiso  0.015458
    Ca1  Ca  0.1800  0.410840  0.873710  0.018300  Uiso  0.015458
    Ca1  Ca  0.1800  0.265180  0.919500  0.018300  Uiso  0.015458
    Ca1  Ca  0.1800  0.119520  0.965280  0.018300  Uiso  0.015458
    Ca1  Ca  0.1800  0.896380  0.803080  0.018300  Uiso  0.015458
    Ca1  Ca  0.1800  0.750720  0.848870  0.018300  Uiso  0.015458
    Ca1  Ca  0.1800  0.605060  0.894660  0.018300  Uiso  0.015458
    Ca1  Ca  0.1800  0.459400  0.940440  0.018300  Uiso  0.015458
    Ca1  Ca  0.1800  0.313740  0.986230  0.018300  Uiso  0.015458
    Ca1  Ca  0.1800  0.944940  0.869820  0.018300  Uiso  0.015458
    Ca1  Ca  0.1800  0.799280  0.915600  0.018300  Uiso  0.015458
    Ca1  Ca  0.1800  0.653610  0.961390  0.018300  Uiso  0.015458
    Ca1  Ca  0.1800  0.993490  0.936550  0.018300  Uiso  0.015458
    Ca1  Ca  0.1800  0.847830  0.982330  0.018300  Uiso  0.015458
    Mg1  Mg  0.0600  0.313740  0.002300  0.018300  Uiso  0.015458
    Mg1  Mg  0.0600  0.168070  0.048090  0.018300  Uiso  0.015458
    Mg1  Mg  0.0600  0.022410  0.093870  0.018300  Uiso  0.015458
    Mg1  Mg  0.0600  0.507950  0.023250  0.018300  Uiso  0.015458
    Mg1  Mg  0.0600  0.362290  0.069030  0.018300  Uiso  0.015458
    Mg1  Mg  0.0600  0.216630  0.114820  0.018300  Uiso  0.015458
    Mg1  Mg  0.0600  0.070970  0.160610  0.018300  Uiso  0.015458
    Mg1  Mg  0.0600  0.702170  0.044190  0.018300  Uiso  0.015458
    Mg1  Mg  0.0600  0.556510  0.089980  0.018300  Uiso  0.015458
    Mg1  Mg  0.0600  0.410840  0.135770  0.018300  Uiso  0.015458
    Mg1  Mg  0.0600  0.265180  0.181550  0.018300  Uiso  0.015458
    Mg1  Mg  0.0600  0.119520  0.227340  0.018300  Uiso  0.015458
    Mg1  Mg  0.0600  0.896380  0.065140  0.018300  Uiso  0.015458
    Mg1  Mg  0.0600  0.750720  0.110930  0.018300  Uiso  0.015458
    Mg1  Mg  0.0600  0.605060  0.156710  0.018300  Uiso  0.015458
    Mg1  Mg  0.0600  0.459400  0.202500  0.018300  Uiso  0.015458
    Mg1  Mg  0.0600  0.313740  0.248280  0.018300  Uiso  0.015458
    Mg1  Mg  0.0600  0.168070  0.294070  0.018300  Uiso  0.015458
    Mg1  Mg  0.0600  0.022410  0.339850  0.018300  Uiso  0.015458
    Mg1  Mg  0.0600  0.944940  0.131870  0.018300  Uiso  0.015458
    Mg1  Mg  0.0600  0.799280  0.177660  0.018300  Uiso  0.015458
    Mg1  Mg  0.0600  0.653610  0.223440  0.018300  Uiso  0.015458
    Mg1  Mg  0.0600  0.507950  0.269230  0.018300  Uiso  0.015458
    Mg1  Mg  0.0600  0.362290  0.315010  0.018300  Uiso  0.015458
    Mg1  Mg  0.0600  0.216630  0.360800  0.018300  Uiso  0.015458
    Mg1  Mg  0.0600  0.070970  0.406590  0.018300  Uiso  0.015458
    Mg1  Mg  0.0600  0.993490  0.198600  0.018300  Uiso  0.015458
    Mg1  Mg  0.0600  0.847830  0.244390  0.018300  Uiso  0.015458
    Mg1  Mg  0.0600  0.702170  0.290170  0.018300  Uiso  0.015458
    Mg1  Mg  0.0600  0.556510  0.335960  0.018300  Uiso  0.015458
    Mg1  Mg  0.0600  0.410840  0.381750  0.018300  Uiso  0.015458
    Mg1  Mg  0.0600  0.265180  0.427530  0.018300  Uiso  0.015458
    Mg1  Mg  0.0600  0.119520  0.473320  0.018300  Uiso  0.015458
    Mg1  Mg  0.0600  0.896380  0.311120  0.018300  Uiso  0.015458
    Mg1  Mg  0.0600  0.750720  0.356910  0.018300  Uiso  0.015458
    Mg1  Mg  0.0600  0.605060  0.402690  0.018300  Uiso  0.015458
    Mg1  Mg  0.0600  0.459400  0.448480  0.018300  Uiso  0.015458
    Mg1  Mg  0.0600  0.313740  0.494260  0.018300  Uiso  0.015458
    Mg1  Mg  0.0600  0.168070  0.540050  0.018300  Uiso  0.015458
    Mg1  Mg  0.0600  0.022410  0.585840  0.018300  Uiso  0.015458
    Mg1  Mg  0.0600  0.944940  0.377850  0.018300  Uiso  0.015458
    Mg1  Mg  0.0600  0.799280  0.423640  0.018300  Uiso  0.015458
    Mg1  Mg  0.0600  0.653610  0.469420  0.018300  Uiso  0.015458
    Mg1  Mg  0.0600  0.507950  0.515210  0.018300  Uiso  0.015458
    Mg1  Mg  0.0600  0.362290  0.561000  0.018300  Uiso  0.015458
    Mg1  Mg  0.0600  0.216630  0.606780  0.018300  Uiso  0.015458
    Mg1  Mg  0.0600  0.070970  0.652570  0.018300  Uiso  0.015458
    Mg1  Mg  0.0600  0.993490  0.444580  0.018300  Uiso  0.015458
    Mg1  Mg  0.0600  0.847830  0.490370  0.018300  Uiso  0.015458
    Mg1  Mg  0.0600  0.702170  0.536160  0.018300  Uiso  0.015458
    Mg1  Mg  0.0600  0.556510  0.581940  0.018300  Uiso  0.015458
    Mg1  Mg  0.0600  0.410840  0.627730  0.018300  Uiso  0.015458
    Mg1  Mg  0.0600  0.265180  0.673510  0.018300  Uiso  0.015458
    Mg1  Mg  0.0600  0.119520  0.719300  0.018300  Uiso  0.015458
    Mg1  Mg  0.0600  0.896380  0.557100  0.018300  Uiso  0.015458
    Mg1  Mg  0.0600  0.750720  0.602890  0.018300  Uiso  0.015458
    Mg1  Mg  0.0600  0.605060  0.648670  0.018300  Uiso  0.015458
    Mg1  Mg  0.0600  0.459400  0.694460  0.018300  Uiso  0.015458
    Mg1  Mg  0.0600  0.313740  0.740250  0.018300  Uiso  0.015458
    Mg1  Mg  0.0600  0.168070  0.786030  0.018300  Uiso  0.015458
    Mg1  Mg  0.0600  0.022410  0.831820  0.018300  Uiso  0.015458
    Mg1  Mg  0.0600  0.944940  0.623830  0.018300  Uiso  0.015458
    Mg1  Mg  0.0600  0.799280  0.669620  0.018300  Uiso  0.015458
    Mg1  Mg  0.0600  0.653610  0.715410  0.018300  Uiso  0.015458
    Mg1  Mg  0.0600  0.507950  0.761190  0.018300  Uiso  0.015458
    Mg1  Mg  0.0600  0.362290  0.806980  0.018300  Uiso  0.015458
    Mg1  Mg  0.0600  0.216630  0.852760  0.018300  Uiso  0.015458
    Mg1  Mg  0.0600  0.070970  0.898550  0.018300  Uiso  0.015458
    Mg1  Mg  0.0600  0.993490  0.690570  0.018300  Uiso  0.015458
    Mg1  Mg  0.0600  0.847830  0.736350  0.018300  Uiso  0.015458
    Mg1  Mg  0.0600  0.702170  0.782140  0.018300  Uiso  0.015458
    Mg1  Mg  0.0600  0.556510  0.827920  0.018300  Uiso  0.015458
    Mg1  Mg  0.0600  0.410840  0.873710  0.018300  Uiso  0.015458
    Mg1  Mg  0.0600  0.265180  0.919500  0.018300  Uiso  0.015458
    Mg1  Mg  0.0600  0.119520  0.965280  0.018300  Uiso  0.015458
    Mg1  Mg  0.0600  0.896380  0.803080  0.018300  Uiso  0.015458
    Mg1  Mg  0.0600  0.750720  0.848870  0.018300  Uiso  0.015458
    Mg1  Mg  0.0600  0.605060  0.894660  0.018300  Uiso  0.015458
    Mg1  Mg  0.0600  0.459400  0.940440  0.018300  Uiso  0.015458
    Mg1  Mg  0.0600  0.313740  0.986230  0.018300  Uiso  0.015458
    Mg1  Mg  0.0600  0.944940  0.869820  0.018300  Uiso  0.015458
    Mg1  Mg  0.0600  0.799280  0.915600  0.018300  Uiso  0.015458
    Mg1  Mg  0.0600  0.653610  0.961390  0.018300  Uiso  0.015458
    Mg1  Mg  0.0600  0.993490  0.936550  0.018300  Uiso  0.015458
    Mg1  Mg  0.0600  0.847830  0.982330  0.018300  Uiso  0.015458
    Si1  Si  1.0000  0.007360  0.020620  0.339800  Uiso  0.007392
    Si1  Si  1.0000  0.201580  0.041570  0.339800  Uiso  0.007392
    Si1  Si  1.0000  0.055910  0.087350  0.339800  Uiso  0.007392
    Si1  Si  1.0000  0.541450  0.016730  0.339800  Uiso  0.007392
    Si1  Si  1.0000  0.395790  0.062510  0.339800  Uiso  0.007392
    Si1  Si  1.0000  0.250130  0.108300  0.339800  Uiso  0.007392
    Si1  Si  1.0000  0.104470  0.154080  0.339800  Uiso  0.007392
    Si1  Si  1.0000  0.735670  0.037670  0.339800  Uiso  0.007392
    Si1  Si  1.0000  0.590010  0.083460  0.339800  Uiso  0.007392
    Si1  Si  1.0000  0.444350  0.129240  0.339800  Uiso  0.007392
    Si1  Si  1.0000  0.298680  0.175030  0.339800  Uiso  0.007392
    Si1  Si  1.0000  0.153020  0.220820  0.339800  Uiso  0.007392
    Si1  Si  1.0000  0.007360  0.266600  0.339800  Uiso  0.007392
    Si1  Si  1.0000  0.929890  0.058620  0.339800  Uiso  0.007392
    Si1  Si  1.0000  0.784220  0.104400  0.339800  Uiso  0.007392
    Si1  Si  1.0000  0.638560  0.150190  0.339800  Uiso  0.007392
    Si1  Si  1.0000  0.492900  0.195980  0.339800  Uiso  0.007392
    Si1  Si  1.0000  0.347240  0.241760  0.339800  Uiso  0.007392
    Si1  Si  1.0000  0.201580  0.287550  0.339800  Uiso  0.007392
    Si1  Si  1.0000  0.055910  0.333330  0.339800  Uiso  0.007392
    Si1  Si  1.0000  0.978440  0.125350  0.339800  Uiso  0.007392
    Si1  Si  1.0000  0.832780  0.171140  0.339800  Uiso  0.007392
    Si1  Si  1.0000  0.687120  0.216920  0.339800  Uiso  0.007392
    Si1  Si  1.0000  0.541450  0.262710  0.339800  Uiso  0.007392
    Si1  Si  1.0000  0.395790  0.308490  0.339800  Uiso  0.007392
    Si1  Si  1.0000  0.250130  0.354280  0.339800  Uiso  0.007392
    Si1  Si  1.0000  0.104470  0.400070  0.339800  Uiso  0.007392
    Si1  Si  1.0000  0.881330  0.237870  0.339800  Uiso  0.007392
    Si1  Si  1.0000  0.735670  0.283650  0.339800  Uiso  0.007392
    Si1  Si  1.0000  0.590010  0.329440  0.339800  Uiso  0.007392
    Si1  Si  1.0000  0.444350  0.375230  0.339800  Uiso  0.007392
    Si1  Si  1.0000  0.298680  0.421010  0.339800  Uiso  0.007392
    Si1  Si  1.0000  0.153020  0.466800  0.339800  Uiso  0.007392
    Si1  Si  1.0000  0.007360  0.512580  0.339800  Uiso  0.007392
    Si1  Si  1.0000  0.929890  0.304600  0.339800  Uiso  0.007392
    Si1  Si  1.0000  0.784220  0.350390  0.339800  Uiso  0.007392
    Si1  Si  1.0000  0.638560  0.396170  0.339800  Uiso  0.007392
    Si1  Si  1.0000  0.492900  0.441960  0.339800  Uiso  0.007392
    Si1  Si  1.0000  0.347240  0.487740  0.339800  Uiso  0.007392
    Si1  Si  1.0000  0.201580  0.533530  0.339800  Uiso  0.007392
    Si1  Si  1.0000  0.055910  0.579320  0.339800  Uiso  0.007392
    Si1  Si  1.0000  0.978440  0.371330  0.339800  Uiso  0.007392
    Si1  Si  1.0000  0.832780  0.417120  0.339800  Uiso  0.007392
    Si1  Si  1.0000  0.687120  0.462900  0.339800  Uiso  0.007392
    Si1  Si  1.0000  0.541450  0.508690  0.339800  Uiso  0.007392
    Si1  Si  1.0000  0.395790  0.554480  0.339800  Uiso  0.007392
    Si1  Si  1.0000  0.250130  0.600260  0.339800  Uiso  0.007392
    Si1  Si  1.0000  0.104470  0.646050  0.339800  Uiso  0.007392
    Si1  Si  1.0000  0.881330  0.483850  0.339800  Uiso  0.007392
    Si1  Si  1.0000  0.735670  0.529640  0.339800  Uiso  0.007392
    Si1  Si  1.0000  0.590010  0.575420  0.339800  Uiso  0.007392
    Si1  Si  1.0000  0.444350  0.621210  0.339800  Uiso  0.007392
    Si1  Si  1.0000  0.298680  0.666990  0.339800  Uiso  0.007392
    Si1  Si  1.0000  0.153020  0.712780  0.339800  Uiso  0.007392
    Si1  Si  1.0000  0.007360  0.758570  0.339800  Uiso  0.007392
    Si1  Si  1.0000  0.929890  0.550580  0.339800  Uiso  0.007392
    Si1  Si  1.0000  0.784220  0.596370  0.339800  Uiso  0.007392
    Si1  Si  1.0000  0.638560  0.642150  0.339800  Uiso  0.007392
    Si1  Si  1.0000  0.492900  0.687940  0.339800  Uiso  0.007392
    Si1  Si  1.0000  0.347240  0.733730  0.339800  Uiso  0.007392
    Si1  Si  1.0000  0.201580  0.779510  0.339800  Uiso  0.007392
    Si1  Si  1.0000  0.055910  0.825300  0.339800  Uiso  0.007392
    Si1  Si  1.0000  0.978440  0.617310  0.339800  Uiso  0.007392
    Si1  Si  1.0000  0.832780  0.663100  0.339800  Uiso  0.007392
    Si1  Si  1.0000  0.687120  0.708890  0.339800  Uiso  0.007392
    Si1  Si  1.0000  0.541450  0.754670  0.339800  Uiso  0.007392
    Si1  Si  1.0000  0.395790  0.800460  0.339800  Uiso  0.007392
    Si1  Si  1.0000  0.250130  0.846240  0.339800  Uiso  0.007392
    Si1  Si  1.0000  0.104470  0.892030  0.339800  Uiso  0.007392
    Si1  Si  1.0000  0.881330  0.729830  0.339800  Uiso  0.007392
    Si1  Si  1.0000  0.735670  0.775620  0.339800  Uiso  0.007392
    Si1  Si  1.0000  0.590010  0.821400  0.339800  Uiso  0.007392
    Si1  Si  1.0000  0.444350  0.867190  0.339800  Uiso  0.007392
    Si1  Si  1.0000  0.298680  0.912970  0.339800  Uiso  0.007392
    Si1  Si  1.0000  0.153020  0.958760  0.339800  Uiso  0.007392
    Si1  Si  1.0000  0.929890  0.796560  0.339800  Uiso  0.007392
    Si1  Si  1.0000  0.784220  0.842350  0.339800  Uiso  0.007392
    Si1  Si  1.0000  0.638560  0.888130  0.339800  Uiso  0.007392
    Si1  Si  1.0000  0.492900  0.933920  0.339800  Uiso  0.007392
    Si1  Si  1.0000  0.347240  0.979710  0.339800  Uiso  0.007392
    Si1  Si  1.0000  0.978440  0.863290  0.339800  Uiso  0.007392
    Si1  Si  1.0000  0.832780  0.909080  0.339800  Uiso  0.007392
    Si1  Si  1.0000  0.687120  0.954870  0.339800  Uiso  0.007392
    Si1  Si  1.0000  0.881330  0.975810  0.339800  Uiso  0.007392
    Si1  Si  1.0000  0.271220  0.016190  0.836700  Uiso  0.006367
    Si1  Si  1.0000  0.125560  0.061980  0.836700  Uiso  0.006367
    Si1  Si  1.0000  0.465440  0.037140  0.836700  Uiso  0.006367
    Si1  Si  1.0000  0.319780  0.082920  0.836700  Uiso  0.006367
    Si1  Si  1.0000  0.174110  0.128710  0.836700  Uiso  0.006367
    Si1  Si  1.0000  0.028450  0.174490  0.836700  Uiso  0.006367
    Si1  Si  1.0000  0.805320  0.012300  0.836700  Uiso  0.006367
    Si1  Si  1.0000  0.659650  0.058080  0.836700  Uiso  0.006367
    Si1  Si  1.0000  0.513990  0.103870  0.836700  Uiso  0.006367
    Si1  Si  1.0000  0.368330  0.149650  0.836700  Uiso  0.006367
    Si1  Si  1.0000  0.222670  0.195440  0.836700  Uiso  0.006367
    Si1  Si  1.0000  0.077010  0.241230  0.836700  Uiso  0.006367
    Si1  Si  1.0000  0.999530  0.033240  0.836700  Uiso  0.006367
    Si1  Si  1.0000  0.853870  0.079030  0.836700  Uiso  0.006367
    Si1  Si  1.0000  0.708210  0.124810  0.836700  Uiso  0.006367
    Si1  Si  1.0000  0.562550  0.170600  0.836700  Uiso  0.006367
    Si1  Si  1.0000  0.416880  0.216390  0.836700  Uiso  0.006367
    Si1  Si  1.0000  0.271220  0.262170  0.836700  Uiso  0.006367
    Si1  Si  1.0000  0.125560  0.307960  0.836700  Uiso  0.006367
    Si1  Si  1.0000  0.902420  0.145760  0.836700  Uiso  0.006367
    Si1  Si  1.0000  0.756760  0.191550  0.836700  Uiso  0.006367
    Si1  Si  1.0000  0.611100  0.237330  0.836700  Uiso  0.006367
    Si1  Si  1.0000  0.465440  0.283120  0.836700  Uiso  0.006367
    Si1  Si  1.0000  0.319780  0.328900  0.836700  Uiso  0.006367
    Si1  Si  1.0000  0.174110  0.374690  0.836700  Uiso  0.006367
    Si1  Si  1.0000  0.028450  0.420470  0.836700  Uiso  0.006367
    Si1  Si  1.0000  0.950980  0.212490  0.836700  Uiso  0.006367
    Si1  Si  1.0000  0.805320  0.258280  0.836700  Uiso  0.006367
    Si1  Si  1.0000  0.659650  0.304060  0.836700  Uiso  0.006367
    Si1  Si  1.0000  0.513990  0.349850  0.836700  Uiso  0.006367
    Si1  Si  1.0000  0.368330  0.395630  0.836700  Uiso  0.006367
    Si1  Si  1.0000  0.222670  0.441420  0.836700  Uiso  0.006367
    Si1  Si  1.0000  0.077010  0.487210  0.836700  Uiso  0.006367
    Si1  Si  1.0000  0.999530  0.279220  0.836700  Uiso  0.006367
    Si1  Si  1.0000  0.853870  0.325010  0.836700  Uiso  0.006367
    Si1  Si  1.0000  0.708210  0.370790  0.836700  Uiso  0.006367
    Si1  Si  1.0000  0.562550  0.416580  0.836700  Uiso  0.006367
    Si1  Si  1.0000  0.416880  0.462370  0.836700  Uiso  0.006367
    Si1  Si  1.0000  0.271220  0.508150  0.836700  Uiso  0.006367
    Si1  Si  1.0000  0.125560  0.553940  0.836700  Uiso  0.006367
    Si1  Si  1.0000  0.902420  0.391740  0.836700  Uiso  0.006367
    Si1  Si  1.0000  0.756760  0.437530  0.836700  Uiso  0.006367
    Si1  Si  1.0000  0.611100  0.483310  0.836700  Uiso  0.006367
    Si1  Si  1.0000  0.465440  0.529100  0.836700  Uiso  0.006367
    Si1  Si  1.0000  0.319780  0.574880  0.836700  Uiso  0.006367
    Si1  Si  1.0000  0.174110  0.620670  0.836700  Uiso  0.006367
    Si1  Si  1.0000  0.028450  0.666460  0.836700  Uiso  0.006367
    Si1  Si  1.0000  0.950980  0.458470  0.836700  Uiso  0.006367
    Si1  Si  1.0000  0.805320  0.504260  0.836700  Uiso  0.006367
    Si1  Si  1.0000  0.659650  0.550040  0.836700  Uiso  0.006367
    Si1  Si  1.0000  0.513990  0.595830  0.836700  Uiso  0.006367
    Si1  Si  1.0000  0.368330  0.641620  0.836700  Uiso  0.006367
    Si1  Si  1.0000  0.222670  0.687400  0.836700  Uiso  0.006367
    Si1  Si  1.0000  0.077010  0.733190  0.836700  Uiso  0.006367
    Si1  Si  1.0000  0.999530  0.525200  0.836700  Uiso  0.006367
    Si1  Si  1.0000  0.853870  0.570990  0.836700  Uiso  0.006367
    Si1  Si  1.0000  0.708210  0.616780  0.836700  Uiso  0.006367
    Si1  Si  1.0000  0.562550  0.662560  0.836700  Uiso  0.006367
    Si1  Si  1.0000  0.416880  0.708350  0.836700  Uiso  0.006367
    Si1  Si  1.0000  0.271220  0.754130  0.836700  Uiso  0.006367
    Si1  Si  1.0000  0.125560  0.799920  0.836700  Uiso  0.006367
    Si1  Si  1.0000  0.902420  0.637720  0.836700  Uiso  0.006367
    Si1  Si  1.0000  0.756760  0.683510  0.836700  Uiso  0.006367
    Si1  Si  1.0000  0.611100  0.729290  0.836700  Uiso  0.006367
    Si1  Si  1.0000  0.465440  0.775080  0.836700  Uiso  0.006367
    Si1  Si  1.0000  0.319780  0.820870  0.836700  Uiso  0.006367
    Si1  Si  1.0000  0.174110  0.866650  0.836700  Uiso  0.006367
    Si1  Si  1.0000  0.028450  0.912440  0.836700  Uiso  0.006367
    Si1  Si  1.0000  0.950980  0.704450  0.836700  Uiso  0.006367
    Si1  Si  1.0000  0.805320  0.750240  0.836700  Uiso  0.006367
    Si1  Si  1.0000  0.659650  0.796030  0.836700  Uiso  0.006367
    Si1  Si  1.0000  0.513990  0.841810  0.836700  Uiso  0.006367
    Si1  Si  1.0000  0.368330  0.887600  0.836700  Uiso  0.006367
    Si1  Si  1.0000  0.222670  0.933380  0.836700  Uiso  0.006367
    Si1  Si  1.0000  0.077010  0.979170  0.836700  Uiso  0.006367
    Si1  Si  1.0000  0.999530  0.771190  0.836700  Uiso  0.006367
    Si1  Si  1.0000  0.853870  0.816970  0.836700  Uiso  0.006367
    Si1  Si  1.0000  0.708210  0.862760  0.836700  Uiso  0.006367
    Si1  Si  1.0000  0.562550  0.908540  0.836700  Uiso  0.006367
    Si1  Si  1.0000  0.416880  0.954330  0.836700  Uiso  0.006367
    Si1  Si  1.0000  0.902420  0.883700  0.836700  Uiso  0.006367
    Si1  Si  1.0000  0.756760  0.929490  0.836700  Uiso  0.006367
    Si1  Si  1.0000  0.611100  0.975280  0.836700  Uiso  0.006367
    Si1  Si  1.0000  0.950980  0.950440  0.836700  Uiso  0.006367
    Si1  Si  1.0000  0.805320  0.996220  0.836700  Uiso  0.006367
    O1  O  1.0000  0.167990  0.043250  0.340400  Uiso  0.007809
    O1  O  1.0000  0.022330  0.089040  0.340400  Uiso  0.007809
    O1  O  1.0000  0.507870  0.018410  0.340400  Uiso  0.007809
    O1  O  1.0000  0.362210  0.064200  0.340400  Uiso  0.007809
    O1  O  1.0000  0.216550  0.109980  0.340400  Uiso  0.007809
    O1  O  1.0000  0.070880  0.155770  0.340400  Uiso  0.007809
    O1  O  1.0000  0.702090  0.039360  0.340400  Uiso  0.007809
    O1  O  1.0000  0.556420  0.085140  0.340400  Uiso  0.007809
    O1  O  1.0000  0.410760  0.130930  0.340400  Uiso  0.007809
    O1  O  1.0000  0.265100  0.176710  0.340400  Uiso  0.007809
    O1  O  1.0000  0.119440  0.222500  0.340400  Uiso  0.007809
    O1  O  1.0000  0.896300  0.060300  0.340400  Uiso  0.007809
    O1  O  1.0000  0.750640  0.106090  0.340400  Uiso  0.007809
    O1  O  1.0000  0.604980  0.151870  0.340400  Uiso  0.007809
    O1  O  1.0000  0.459320  0.197660  0.340400  Uiso  0.007809
    O1  O  1.0000  0.313650  0.243450  0.340400  Uiso  0.007809
    O1  O  1.0000  0.167990  0.289230  0.340400  Uiso  0.007809
    O1  O  1.0000  0.022330  0.335020  0.340400  Uiso  0.007809
    O1  O  1.0000  0.944850  0.127030  0.340400  Uiso  0.007809
    O1  O  1.0000  0.799190  0.172820  0.340400  Uiso  0.007809
    O1  O  1.0000  0.653530  0.218610  0.340400  Uiso  0.007809
    O1  O  1.0000  0.507870  0.264390  0.340400  Uiso  0.007809
    O1  O  1.0000  0.362210  0.310180  0.340400  Uiso  0.007809
    O1  O  1.0000  0.216550  0.355960  0.340400  Uiso  0.007809
    O1  O  1.0000  0.070880  0.401750  0.340400  Uiso  0.007809
    O1  O  1.0000  0.993410  0.193770  0.340400  Uiso  0.007809
    O1  O  1.0000  0.847750  0.239550  0.340400  Uiso  0.007809
    O1  O  1.0000  0.702090  0.285340  0.340400  Uiso  0.007809
    O1  O  1.0000  0.556420  0.331120  0.340400  Uiso  0.007809
    O1  O  1.0000  0.410760  0.376910  0.340400  Uiso  0.007809
    O1  O  1.0000  0.265100  0.422700  0.340400  Uiso  0.007809
    O1  O  1.0000  0.119440  0.468480  0.340400  Uiso  0.007809
    O1  O  1.0000  0.896300  0.306280  0.340400  Uiso  0.007809
    O1  O  1.0000  0.750640  0.352070  0.340400  Uiso  0.007809
    O1  O  1.0000  0.604980  0.397860  0.340400  Uiso  0.007809
    O1  O  1.0000  0.459320  0.443640  0.340400  Uiso  0.007809
    O1  O  1.0000  0.313650  0.489430  0.340400  Uiso  0.007809
    O1  O  1.0000  0.167990  0.535210  0.340400  Uiso  0.007809
    O1  O  1.0000  0.022330  0.581000  0.340400  Uiso  0.007809
    O1  O  1.0000  0.944850  0.373020  0.340400  Uiso  0.007809
    O1  O  1.0000  0.799190  0.418800  0.340400  Uiso  0.007809
    O1  O  1.0000  0.653530  0.464590  0.340400  Uiso  0.007809
    O1  O  1.0000  0.507870  0.510370  0.340400  Uiso  0.007809
    O1  O  1.0000  0.362210  0.556160  0.340400  Uiso  0.007809
    O1  O  1.0000  0.216550  0.601950  0.340400  Uiso  0.007809
    O1  O  1.0000  0.070880  0.647730  0.340400  Uiso  0.007809
    O1  O  1.0000  0.993410  0.439750  0.340400  Uiso  0.007809
    O1  O  1.0000  0.847750  0.485530  0.340400  Uiso  0.007809
    O1  O  1.0000  0.702090  0.531320  0.340400  Uiso  0.007809
    O1  O  1.0000  0.556420  0.577110  0.340400  Uiso  0.007809
    O1  O  1.0000  0.410760  0.622890  0.340400  Uiso  0.007809
    O1  O  1.0000  0.265100  0.668680  0.340400  Uiso  0.007809
    O1  O  1.0000  0.119440  0.714460  0.340400  Uiso  0.007809
    O1  O  1.0000  0.896300  0.552270  0.340400  Uiso  0.007809
    O1  O  1.0000  0.750640  0.598050  0.340400  Uiso  0.007809
    O1  O  1.0000  0.604980  0.643840  0.340400  Uiso  0.007809
    O1  O  1.0000  0.459320  0.689620  0.340400  Uiso  0.007809
    O1  O  1.0000  0.313650  0.735410  0.340400  Uiso  0.007809
    O1  O  1.0000  0.167990  0.781200  0.340400  Uiso  0.007809
    O1  O  1.0000  0.022330  0.826980  0.340400  Uiso  0.007809
    O1  O  1.0000  0.944850  0.619000  0.340400  Uiso  0.007809
    O1  O  1.0000  0.799190  0.664780  0.340400  Uiso  0.007809
    O1  O  1.0000  0.653530  0.710570  0.340400  Uiso  0.007809
    O1  O  1.0000  0.507870  0.756360  0.340400  Uiso  0.007809
    O1  O  1.0000  0.362210  0.802140  0.340400  Uiso  0.007809
    O1  O  1.0000  0.216550  0.847930  0.340400  Uiso  0.007809
    O1  O  1.0000  0.070880  0.893710  0.340400  Uiso  0.007809
    O1  O  1.0000  0.993410  0.685730  0.340400  Uiso  0.007809
    O1  O  1.0000  0.847750  0.731520  0.340400  Uiso  0.007809
    O1  O  1.0000  0.702090  0.777300  0.340400  Uiso  0.007809
    O1  O  1.0000  0.556420  0.823090  0.340400  Uiso  0.007809
    O1  O  1.0000  0.410760  0.868870  0.340400  Uiso  0.007809
    O1  O  1.0000  0.265100  0.914660  0.340400  Uiso  0.007809
    O1  O  1.0000  0.119440  0.960450  0.340400  Uiso  0.007809
    O1  O  1.0000  0.896300  0.798250  0.340400  Uiso  0.007809
    O1  O  1.0000  0.750640  0.844030  0.340400  Uiso  0.007809
    O1  O  1.0000  0.604980  0.889820  0.340400  Uiso  0.007809
    O1  O  1.0000  0.459320  0.935610  0.340400  Uiso  0.007809
    O1  O  1.0000  0.313650  0.981390  0.340400  Uiso  0.007809
    O1  O  1.0000  0.944850  0.864980  0.340400  Uiso  0.007809
    O1  O  1.0000  0.799190  0.910770  0.340400  Uiso  0.007809
    O1  O  1.0000  0.653530  0.956550  0.340400  Uiso  0.007809
    O1  O  1.0000  0.993410  0.931710  0.340400  Uiso  0.007809
    O1  O  1.0000  0.847750  0.977500  0.340400  Uiso  0.007809
    O1  O  1.0000  0.338160  0.002810  0.497000  Uiso  0.010060
    O1  O  1.0000  0.192500  0.048590  0.497000  Uiso  0.010060
    O1  O  1.0000  0.046840  0.094380  0.497000  Uiso  0.010060
    O1  O  1.0000  0.532370  0.023750  0.497000  Uiso  0.010060
    O1  O  1.0000  0.386710  0.069540  0.497000  Uiso  0.010060
    O1  O  1.0000  0.241050  0.115330  0.497000  Uiso  0.010060
    O1  O  1.0000  0.095390  0.161110  0.497000  Uiso  0.010060
    O1  O  1.0000  0.726590  0.044700  0.497000  Uiso  0.010060
    O1  O  1.0000  0.580930  0.090490  0.497000  Uiso  0.010060
    O1  O  1.0000  0.435270  0.136270  0.497000  Uiso  0.010060
    O1  O  1.0000  0.289600  0.182060  0.497000  Uiso  0.010060
    O1  O  1.0000  0.143940  0.227840  0.497000  Uiso  0.010060
    O1  O  1.0000  0.920810  0.065650  0.497000  Uiso  0.010060
    O1  O  1.0000  0.775140  0.111430  0.497000  Uiso  0.010060
    O1  O  1.0000  0.629480  0.157220  0.497000  Uiso  0.010060
    O1  O  1.0000  0.483820  0.203000  0.497000  Uiso  0.010060
    O1  O  1.0000  0.338160  0.248790  0.497000  Uiso  0.010060
    O1  O  1.0000  0.192500  0.294580  0.497000  Uiso  0.010060
    O1  O  1.0000  0.046840  0.340360  0.497000  Uiso  0.010060
    O1  O  1.0000  0.969360  0.132380  0.497000  Uiso  0.010060
    O1  O  1.0000  0.823700  0.178160  0.497000  Uiso  0.010060
    O1  O  1.0000  0.678040  0.223950  0.497000  Uiso  0.010060
    O1  O  1.0000  0.532370  0.269740  0.497000  Uiso  0.010060
    O1  O  1.0000  0.386710  0.315520  0.497000  Uiso  0.010060
    O1  O  1.0000  0.241050  0.361310  0.497000  Uiso  0.010060
    O1  O  1.0000  0.095390  0.407090  0.497000  Uiso  0.010060
    O1  O  1.0000  0.872250  0.244900  0.497000  Uiso  0.010060
    O1  O  1.0000  0.726590  0.290680  0.497000  Uiso  0.010060
    O1  O  1.0000  0.580930  0.336470  0.497000  Uiso  0.010060
    O1  O  1.0000  0.435270  0.382250  0.497000  Uiso  0.010060
    O1  O  1.0000  0.289600  0.428040  0.497000  Uiso  0.010060
    O1  O  1.0000  0.143940  0.473820  0.497000  Uiso  0.010060
    O1  O  1.0000  0.920810  0.311630  0.497000  Uiso  0.010060
    O1  O  1.0000  0.775140  0.357410  0.497000  Uiso  0.010060
    O1  O  1.0000  0.629480  0.403200  0.497000  Uiso  0.010060
    O1  O  1.0000  0.483820  0.448980  0.497000  Uiso  0.010060
    O1  O  1.0000  0.338160  0.494770  0.497000  Uiso  0.010060
    O1  O  1.0000  0.192500  0.540560  0.497000  Uiso  0.010060
    O1  O  1.0000  0.046840  0.586340  0.497000  Uiso  0.010060
    O1  O  1.0000  0.969360  0.378360  0.497000  Uiso  0.010060
    O1  O  1.0000  0.823700  0.424140  0.497000  Uiso  0.010060
    O1  O  1.0000  0.678040  0.469930  0.497000  Uiso  0.010060
    O1  O  1.0000  0.532370  0.515720  0.497000  Uiso  0.010060
    O1  O  1.0000  0.386710  0.561500  0.497000  Uiso  0.010060
    O1  O  1.0000  0.241050  0.607290  0.497000  Uiso  0.010060
    O1  O  1.0000  0.095390  0.653070  0.497000  Uiso  0.010060
    O1  O  1.0000  0.872250  0.490880  0.497000  Uiso  0.010060
    O1  O  1.0000  0.726590  0.536660  0.497000  Uiso  0.010060
    O1  O  1.0000  0.580930  0.582450  0.497000  Uiso  0.010060
    O1  O  1.0000  0.435270  0.628230  0.497000  Uiso  0.010060
    O1  O  1.0000  0.289600  0.674020  0.497000  Uiso  0.010060
    O1  O  1.0000  0.143940  0.719810  0.497000  Uiso  0.010060
    O1  O  1.0000  0.920810  0.557610  0.497000  Uiso  0.010060
    O1  O  1.0000  0.775140  0.603390  0.497000  Uiso  0.010060
    O1  O  1.0000  0.629480  0.649180  0.497000  Uiso  0.010060
    O1  O  1.0000  0.483820  0.694970  0.497000  Uiso  0.010060
    O1  O  1.0000  0.338160  0.740750  0.497000  Uiso  0.010060
    O1  O  1.0000  0.192500  0.786540  0.497000  Uiso  0.010060
    O1  O  1.0000  0.046840  0.832320  0.497000  Uiso  0.010060
    O1  O  1.0000  0.969360  0.624340  0.497000  Uiso  0.010060
    O1  O  1.0000  0.823700  0.670130  0.497000  Uiso  0.010060
    O1  O  1.0000  0.678040  0.715910  0.497000  Uiso  0.010060
    O1  O  1.0000  0.532370  0.761700  0.497000  Uiso  0.010060
    O1  O  1.0000  0.386710  0.807480  0.497000  Uiso  0.010060
    O1  O  1.0000  0.241050  0.853270  0.497000  Uiso  0.010060
    O1  O  1.0000  0.095390  0.899060  0.497000  Uiso  0.010060
    O1  O  1.0000  0.872250  0.736860  0.497000  Uiso  0.010060
    O1  O  1.0000  0.726590  0.782640  0.497000  Uiso  0.010060
    O1  O  1.0000  0.580930  0.828430  0.497000  Uiso  0.010060
    O1  O  1.0000  0.435270  0.874220  0.497000  Uiso  0.010060
    O1  O  1.0000  0.289600  0.920000  0.497000  Uiso  0.010060
    O1  O  1.0000  0.143940  0.965790  0.497000  Uiso  0.010060
    O1  O  1.0000  0.920810  0.803590  0.497000  Uiso  0.010060
    O1  O  1.0000  0.775140  0.849380  0.497000  Uiso  0.010060
    O1  O  1.0000  0.629480  0.895160  0.497000  Uiso  0.010060
    O1  O  1.0000  0.483820  0.940950  0.497000  Uiso  0.010060
    O1  O  1.0000  0.338160  0.986730  0.497000  Uiso  0.010060
    O1  O  1.0000  0.969360  0.870320  0.497000  Uiso  0.010060
    O1  O  1.0000  0.823700  0.916110  0.497000  Uiso  0.010060
    O1  O  1.0000  0.678040  0.961890  0.497000  Uiso  0.010060
    O1  O  1.0000  0.872250  0.982840  0.497000  Uiso  0.010060
    O1  O  1.0000  0.012950  0.043310  0.263300  Uiso  0.011470
    O1  O  1.0000  0.352830  0.018470  0.263300  Uiso  0.011470
    O1  O  1.0000  0.207170  0.064260  0.263300  Uiso  0.011470
    O1  O  1.0000  0.061510  0.110040  0.263300  Uiso  0.011470
    O1  O  1.0000  0.547050  0.039420  0.263300  Uiso  0.011470
    O1  O  1.0000  0.401390  0.085200  0.263300  Uiso  0.011470
    O1  O  1.0000  0.255720  0.130990  0.263300  Uiso  0.011470
    O1  O  1.0000  0.110060  0.176780  0.263300  Uiso  0.011470
    O1  O  1.0000  0.886930  0.014580  0.263300  Uiso  0.011470
    O1  O  1.0000  0.741260  0.060360  0.263300  Uiso  0.011470
    O1  O  1.0000  0.595600  0.106150  0.263300  Uiso  0.011470
    O1  O  1.0000  0.449940  0.151940  0.263300  Uiso  0.011470
    O1  O  1.0000  0.304280  0.197720  0.263300  Uiso  0.011470
    O1  O  1.0000  0.158620  0.243510  0.263300  Uiso  0.011470
    O1  O  1.0000  0.012950  0.289290  0.263300  Uiso  0.011470
    O1  O  1.0000  0.935480  0.081310  0.263300  Uiso  0.011470
    O1  O  1.0000  0.789820  0.127100  0.263300  Uiso  0.011470
    O1  O  1.0000  0.644160  0.172880  0.263300  Uiso  0.011470
    O1  O  1.0000  0.498490  0.218670  0.263300  Uiso  0.011470
    O1  O  1.0000  0.352830  0.264450  0.263300  Uiso  0.011470
    O1  O  1.0000  0.207170  0.310240  0.263300  Uiso  0.011470
    O1  O  1.0000  0.061510  0.356030  0.263300  Uiso  0.011470
    O1  O  1.0000  0.984030  0.148040  0.263300  Uiso  0.011470
    O1  O  1.0000  0.838370  0.193830  0.263300  Uiso  0.011470
    O1  O  1.0000  0.692710  0.239610  0.263300  Uiso  0.011470
    O1  O  1.0000  0.547050  0.285400  0.263300  Uiso  0.011470
    O1  O  1.0000  0.401390  0.331190  0.263300  Uiso  0.011470
    O1  O  1.0000  0.255720  0.376970  0.263300  Uiso  0.011470
    O1  O  1.0000  0.110060  0.422760  0.263300  Uiso  0.011470
    O1  O  1.0000  0.886930  0.260560  0.263300  Uiso  0.011470
    O1  O  1.0000  0.741260  0.306350  0.263300  Uiso  0.011470
    O1  O  1.0000  0.595600  0.352130  0.263300  Uiso  0.011470
    O1  O  1.0000  0.449940  0.397920  0.263300  Uiso  0.011470
    O1  O  1.0000  0.304280  0.443700  0.263300  Uiso  0.011470
    O1  O  1.0000  0.158620  0.489490  0.263300  Uiso  0.011470
    O1  O  1.0000  0.012950  0.535280  0.263300  Uiso  0.011470
    O1  O  1.0000  0.935480  0.327290  0.263300  Uiso  0.011470
    O1  O  1.0000  0.789820  0.373080  0.263300  Uiso  0.011470
    O1  O  1.0000  0.644160  0.418860  0.263300  Uiso  0.011470
    O1  O  1.0000  0.498490  0.464650  0.263300  Uiso  0.011470
    O1  O  1.0000  0.352830  0.510440  0.263300  Uiso  0.011470
    O1  O  1.0000  0.207170  0.556220  0.263300  Uiso  0.011470
    O1  O  1.0000  0.061510  0.602010  0.263300  Uiso  0.011470
    O1  O  1.0000  0.984030  0.394020  0.263300  Uiso  0.011470
    O1  O  1.0000  0.838370  0.439810  0.263300  Uiso  0.011470
    O1  O  1.0000  0.692710  0.485600  0.263300  Uiso  0.011470
    O1  O  1.0000  0.547050  0.531380  0.263300  Uiso  0.011470
    O1  O  1.0000  0.401390  0.577170  0.263300  Uiso  0.011470
    O1  O  1.0000  0.255720  0.622950  0.263300  Uiso  0.011470
    O1  O  1.0000  0.110060  0.668740  0.263300  Uiso  0.011470
    O1  O  1.0000  0.886930  0.506540  0.263300  Uiso  0.011470
    O1  O  1.0000  0.741260  0.552330  0.263300  Uiso  0.011470
    O1  O  1.0000  0.595600  0.598110  0.263300  Uiso  0.011470
    O1  O  1.0000  0.449940  0.643900  0.263300  Uiso  0.011470
    O1  O  1.0000  0.304280  0.689690  0.263300  Uiso  0.011470
    O1  O  1.0000  0.158620  0.735470  0.263300  Uiso  0.011470
    O1  O  1.0000  0.012950  0.781260  0.263300  Uiso  0.011470
    O1  O  1.0000  0.935480  0.573270  0.263300  Uiso  0.011470
    O1  O  1.0000  0.789820  0.619060  0.263300  Uiso  0.011470
    O1  O  1.0000  0.644160  0.664850  0.263300  Uiso  0.011470
    O1  O  1.0000  0.498490  0.710630  0.263300  Uiso  0.011470
    O1  O  1.0000  0.352830  0.756420  0.263300  Uiso  0.011470
    O1  O  1.0000  0.207170  0.802200  0.263300  Uiso  0.011470
    O1  O  1.0000  0.061510  0.847990  0.263300  Uiso  0.011470
    O1  O  1.0000  0.984030  0.640010  0.263300  Uiso  0.011470
    O1  O  1.0000  0.838370  0.685790  0.263300  Uiso  0.011470
    O1  O  1.0000  0.692710  0.731580  0.263300  Uiso  0.011470
    O1  O  1.0000  0.547050  0.777360  0.263300  Uiso  0.011470
    O1  O  1.0000  0.401390  0.823150  0.263300  Uiso  0.011470
    O1  O  1.0000  0.255720  0.868940  0.263300  Uiso  0.011470
    O1  O  1.0000  0.110060  0.914720  0.263300  Uiso  0.011470
    O1  O  1.0000  0.886930  0.752520  0.263300  Uiso  0.011470
    O1  O  1.0000  0.741260  0.798310  0.263300  Uiso  0.011470
    O1  O  1.0000  0.595600  0.844100  0.263300  Uiso  0.011470
    O1  O  1.0000  0.449940  0.889880  0.263300  Uiso  0.011470
    O1  O  1.0000  0.304280  0.935670  0.263300  Uiso  0.011470
    O1  O  1.0000  0.158620  0.981450  0.263300  Uiso  0.011470
    O1  O  1.0000  0.935480  0.819260  0.263300  Uiso  0.011470
    O1  O  1.0000  0.789820  0.865040  0.263300  Uiso  0.011470
    O1  O  1.0000  0.644160  0.910830  0.263300  Uiso  0.011470
    O1  O  1.0000  0.498490  0.956610  0.263300  Uiso  0.011470
    O1  O  1.0000  0.984030  0.885990  0.263300  Uiso  0.011470
    O1  O  1.0000  0.838370  0.931770  0.263300  Uiso  0.011470
    O1  O  1.0000  0.692710  0.977560  0.263300  Uiso  0.011470
    O1  O  1.0000  0.886930  0.998510  0.263300  Uiso  0.011470
    O1  O  1.0000  0.291880  0.001270  0.834200  Uiso  0.007491
    O1  O  1.0000  0.146220  0.047050  0.834200  Uiso  0.007491
    O1  O  1.0000  0.000560  0.092840  0.834200  Uiso  0.007491
    O1  O  1.0000  0.486100  0.022210  0.834200  Uiso  0.007491
    O1  O  1.0000  0.340440  0.068000  0.834200  Uiso  0.007491
    O1  O  1.0000  0.194770  0.113780  0.834200  Uiso  0.007491
    O1  O  1.0000  0.049110  0.159570  0.834200  Uiso  0.007491
    O1  O  1.0000  0.680310  0.043160  0.834200  Uiso  0.007491
    O1  O  1.0000  0.534650  0.088940  0.834200  Uiso  0.007491
    O1  O  1.0000  0.388990  0.134730  0.834200  Uiso  0.007491
    O1  O  1.0000  0.243330  0.180520  0.834200  Uiso  0.007491
    O1  O  1.0000  0.097670  0.226300  0.834200  Uiso  0.007491
    O1  O  1.0000  0.874530  0.064100  0.834200  Uiso  0.007491
    O1  O  1.0000  0.728870  0.109890  0.834200  Uiso  0.007491
    O1  O  1.0000  0.583210  0.155680  0.834200  Uiso  0.007491
    O1  O  1.0000  0.437540  0.201460  0.834200  Uiso  0.007491
    O1  O  1.0000  0.291880  0.247250  0.834200  Uiso  0.007491
    O1  O  1.0000  0.146220  0.293030  0.834200  Uiso  0.007491
    O1  O  1.0000  0.000560  0.338820  0.834200  Uiso  0.007491
    O1  O  1.0000  0.923080  0.130840  0.834200  Uiso  0.007491
    O1  O  1.0000  0.777420  0.176620  0.834200  Uiso  0.007491
    O1  O  1.0000  0.631760  0.222410  0.834200  Uiso  0.007491
    O1  O  1.0000  0.486100  0.268190  0.834200  Uiso  0.007491
    O1  O  1.0000  0.340440  0.313980  0.834200  Uiso  0.007491
    O1  O  1.0000  0.194770  0.359770  0.834200  Uiso  0.007491
    O1  O  1.0000  0.049110  0.405550  0.834200  Uiso  0.007491
    O1  O  1.0000  0.971640  0.197570  0.834200  Uiso  0.007491
    O1  O  1.0000  0.825980  0.243350  0.834200  Uiso  0.007491
    O1  O  1.0000  0.680310  0.289140  0.834200  Uiso  0.007491
    O1  O  1.0000  0.534650  0.334930  0.834200  Uiso  0.007491
    O1  O  1.0000  0.388990  0.380710  0.834200  Uiso  0.007491
    O1  O  1.0000  0.243330  0.426500  0.834200  Uiso  0.007491
    O1  O  1.0000  0.097670  0.472280  0.834200  Uiso  0.007491
    O1  O  1.0000  0.874530  0.310090  0.834200  Uiso  0.007491
    O1  O  1.0000  0.728870  0.355870  0.834200  Uiso  0.007491
    O1  O  1.0000  0.583210  0.401660  0.834200  Uiso  0.007491
    O1  O  1.0000  0.437540  0.447440  0.834200  Uiso  0.007491
    O1  O  1.0000  0.291880  0.493230  0.834200  Uiso  0.007491
    O1  O  1.0000  0.146220  0.539020  0.834200  Uiso  0.007491
    O1  O  1.0000  0.000560  0.584800  0.834200  Uiso  0.007491
    O1  O  1.0000  0.923080  0.376820  0.834200  Uiso  0.007491
    O1  O  1.0000  0.777420  0.422600  0.834200  Uiso  0.007491
    O1  O  1.0000  0.631760  0.468390  0.834200  Uiso  0.007491
    O1  O  1.0000  0.486100  0.514180  0.834200  Uiso  0.007491
    O1  O  1.0000  0.340440  0.559960  0.834200  Uiso  0.007491
    O1  O  1.0000  0.194770  0.605750  0.834200  Uiso  0.007491
    O1  O  1.0000  0.049110  0.651530  0.834200  Uiso  0.007491
    O1  O  1.0000  0.971640  0.443550  0.834200  Uiso  0.007491
    O1  O  1.0000  0.825980  0.489340  0.834200  Uiso  0.007491
    O1  O  1.0000  0.680310  0.535120  0.834200  Uiso  0.007491
    O1  O  1.0000  0.534650  0.580910  0.834200  Uiso  0.007491
    O1  O  1.0000  0.388990  0.626690  0.834200  Uiso  0.007491
    O1  O  1.0000  0.243330  0.672480  0.834200  Uiso  0.007491
    O1  O  1.0000  0.097670  0.718270  0.834200  Uiso  0.007491
    O1  O  1.0000  0.874530  0.556070  0.834200  Uiso  0.007491
    O1  O  1.0000  0.728870  0.601850  0.834200  Uiso  0.007491
    O1  O  1.0000  0.583210  0.647640  0.834200  Uiso  0.007491
    O1  O  1.0000  0.437540  0.693430  0.834200  Uiso  0.007491
    O1  O  1.0000  0.291880  0.739210  0.834200  Uiso  0.007491
    O1  O  1.0000  0.146220  0.785000  0.834200  Uiso  0.007491
    O1  O  1.0000  0.000560  0.830780  0.834200  Uiso  0.007491
    O1  O  1.0000  0.923080  0.622800  0.834200  Uiso  0.007491
    O1  O  1.0000  0.777420  0.668590  0.834200  Uiso  0.007491
    O1  O  1.0000  0.631760  0.714370  0.834200  Uiso  0.007491
    O1  O  1.0000  0.486100  0.760160  0.834200  Uiso  0.007491
    O1  O  1.0000  0.340440  0.805940  0.834200  Uiso  0.007491
    O1  O  1.0000  0.194770  0.851730  0.834200  Uiso  0.007491
    O1  O  1.0000  0.049110  0.897520  0.834200  Uiso  0.007491
    O1  O  1.0000  0.971640  0.689530  0.834200  Uiso  0.007491
    O1  O  1.0000  0.825980  0.735320  0.834200  Uiso  0.007491
    O1  O  1.0000  0.680310  0.781100  0.834200  Uiso  0.007491
    O1  O  1.0000  0.534650  0.826890  0.834200  Uiso  0.007491
    O1  O  1.0000  0.388990  0.872680  0.834200  Uiso  0.007491
    O1  O  1.0000  0.243330  0.918460  0.834200  Uiso  0.007491
    O1  O  1.0000  0.097670  0.964250  0.834200  Uiso  0.007491
    O1  O  1.0000  0.874530  0.802050  0.834200  Uiso  0.007491
    O1  O  1.0000  0.728870  0.847840  0.834200  Uiso  0.007491
    O1  O  1.0000  0.583210  0.893620  0.834200  Uiso  0.007491
    O1  O  1.0000  0.437540  0.939410  0.834200  Uiso  0.007491
    O1  O  1.0000  0.291880  0.985190  0.834200  Uiso  0.007491
    O1  O  1.0000  0.923080  0.868780  0.834200  Uiso  0.007491
    O1  O  1.0000  0.777420  0.914570  0.834200  Uiso  0.007491
    O1  O  1.0000  0.631760  0.960350  0.834200  Uiso  0.007491
    O1  O  1.0000  0.971640  0.935510  0.834200  Uiso  0.007491
    O1  O  1.0000  0.825980  0.981300  0.834200  Uiso  0.007491
    O1  O  1.0000  0.072320  0.008140  0.987700  Uiso  0.014236
    O1  O  1.0000  0.266540  0.029080  0.987700  Uiso  0.014236
    O1  O  1.0000  0.120880  0.074870  0.987700  Uiso  0.014236
    O1  O  1.0000  0.606410  0.004240  0.987700  Uiso  0.014236
    O1  O  1.0000  0.460750  0.050030  0.987700  Uiso  0.014236
    O1  O  1.0000  0.315090  0.095820  0.987700  Uiso  0.014236
    O1  O  1.0000  0.169430  0.141600  0.987700  Uiso  0.014236
    O1  O  1.0000  0.023770  0.187390  0.987700  Uiso  0.014236
    O1  O  1.0000  0.800630  0.025190  0.987700  Uiso  0.014236
    O1  O  1.0000  0.654970  0.070980  0.987700  Uiso  0.014236
    O1  O  1.0000  0.509310  0.116760  0.987700  Uiso  0.014236
    O1  O  1.0000  0.363640  0.162550  0.987700  Uiso  0.014236
    O1  O  1.0000  0.217980  0.208330  0.987700  Uiso  0.014236
    O1  O  1.0000  0.072320  0.254120  0.987700  Uiso  0.014236
    O1  O  1.0000  0.994850  0.046140  0.987700  Uiso  0.014236
    O1  O  1.0000  0.849180  0.091920  0.987700  Uiso  0.014236
    O1  O  1.0000  0.703520  0.137710  0.987700  Uiso  0.014236
    O1  O  1.0000  0.557860  0.183490  0.987700  Uiso  0.014236
    O1  O  1.0000  0.412200  0.229280  0.987700  Uiso  0.014236
    O1  O  1.0000  0.266540  0.275070  0.987700  Uiso  0.014236
    O1  O  1.0000  0.120880  0.320850  0.987700  Uiso  0.014236
    O1  O  1.0000  0.897740  0.158650  0.987700  Uiso  0.014236
    O1  O  1.0000  0.752080  0.204440  0.987700  Uiso  0.014236
    O1  O  1.0000  0.606410  0.250230  0.987700  Uiso  0.014236
    O1  O  1.0000  0.460750  0.296010  0.987700  Uiso  0.014236
    O1  O  1.0000  0.315090  0.341800  0.987700  Uiso  0.014236
    O1  O  1.0000  0.169430  0.387580  0.987700  Uiso  0.014236
    O1  O  1.0000  0.023770  0.433370  0.987700  Uiso  0.014236
    O1  O  1.0000  0.946290  0.225390  0.987700  Uiso  0.014236
    O1  O  1.0000  0.800630  0.271170  0.987700  Uiso  0.014236
    O1  O  1.0000  0.654970  0.316960  0.987700  Uiso  0.014236
    O1  O  1.0000  0.509310  0.362740  0.987700  Uiso  0.014236
    O1  O  1.0000  0.363640  0.408530  0.987700  Uiso  0.014236
    O1  O  1.0000  0.217980  0.454320  0.987700  Uiso  0.014236
    O1  O  1.0000  0.072320  0.500100  0.987700  Uiso  0.014236
    O1  O  1.0000  0.994850  0.292120  0.987700  Uiso  0.014236
    O1  O  1.0000  0.849180  0.337900  0.987700  Uiso  0.014236
    O1  O  1.0000  0.703520  0.383690  0.987700  Uiso  0.014236
    O1  O  1.0000  0.557860  0.429480  0.987700  Uiso  0.014236
    O1  O  1.0000  0.412200  0.475260  0.987700  Uiso  0.014236
    O1  O  1.0000  0.266540  0.521050  0.987700  Uiso  0.014236
    O1  O  1.0000  0.120880  0.566830  0.987700  Uiso  0.014236
    O1  O  1.0000  0.897740  0.404640  0.987700  Uiso  0.014236
    O1  O  1.0000  0.752080  0.450420  0.987700  Uiso  0.014236
    O1  O  1.0000  0.606410  0.496210  0.987700  Uiso  0.014236
    O1  O  1.0000  0.460750  0.541990  0.987700  Uiso  0.014236
    O1  O  1.0000  0.315090  0.587780  0.987700  Uiso  0.014236
    O1  O  1.0000  0.169430  0.633570  0.987700  Uiso  0.014236
    O1  O  1.0000  0.023770  0.679350  0.987700  Uiso  0.014236
    O1  O  1.0000  0.946290  0.471370  0.987700  Uiso  0.014236
    O1  O  1.0000  0.800630  0.517150  0.987700  Uiso  0.014236
    O1  O  1.0000  0.654970  0.562940  0.987700  Uiso  0.014236
    O1  O  1.0000  0.509310  0.608730  0.987700  Uiso  0.014236
    O1  O  1.0000  0.363640  0.654510  0.987700  Uiso  0.014236
    O1  O  1.0000  0.217980  0.700300  0.987700  Uiso  0.014236
    O1  O  1.0000  0.072320  0.746080  0.987700  Uiso  0.014236
    O1  O  1.0000  0.994850  0.538100  0.987700  Uiso  0.014236
    O1  O  1.0000  0.849180  0.583890  0.987700  Uiso  0.014236
    O1  O  1.0000  0.703520  0.629670  0.987700  Uiso  0.014236
    O1  O  1.0000  0.557860  0.675460  0.987700  Uiso  0.014236
    O1  O  1.0000  0.412200  0.721240  0.987700  Uiso  0.014236
    O1  O  1.0000  0.266540  0.767030  0.987700  Uiso  0.014236
    O1  O  1.0000  0.120880  0.812820  0.987700  Uiso  0.014236
    O1  O  1.0000  0.897740  0.650620  0.987700  Uiso  0.014236
    O1  O  1.0000  0.752080  0.696400  0.987700  Uiso  0.014236
    O1  O  1.0000  0.606410  0.742190  0.987700  Uiso  0.014236
    O1  O  1.0000  0.460750  0.787980  0.987700  Uiso  0.014236
    O1  O  1.0000  0.315090  0.833760  0.987700  Uiso  0.014236
    O1  O  1.0000  0.169430  0.879550  0.987700  Uiso  0.014236
    O1  O  1.0000  0.023770  0.925330  0.987700  Uiso  0.014236
    O1  O  1.0000  0.946290  0.717350  0.987700  Uiso  0.014236
    O1  O  1.0000  0.800630  0.763140  0.987700  Uiso  0.014236
    O1  O  1.0000  0.654970  0.808920  0.987700  Uiso  0.014236
    O1  O  1.0000  0.509310  0.854710  0.987700  Uiso  0.014236
    O1  O  1.0000  0.363640  0.900490  0.987700  Uiso  0.014236
    O1  O  1.0000  0.217980  0.946280  0.987700  Uiso  0.014236
    O1  O  1.0000  0.072320  0.992060  0.987700  Uiso  0.014236
    O1  O  1.0000  0.994850  0.784080  0.987700  Uiso  0.014236
    O1  O  1.0000  0.849180  0.829870  0.987700  Uiso  0.014236
    O1  O  1.0000  0.703520  0.875650  0.987700  Uiso  0.014236
    O1  O  1.0000  0.557860  0.921440  0.987700  Uiso  0.014236
    O1  O  1.0000  0.412200  0.967220  0.987700  Uiso  0.014236
    O1  O  1.0000  0.897740  0.896600  0.987700  Uiso  0.014236
    O1  O  1.0000  0.752080  0.942380  0.987700  Uiso  0.014236
    O1  O  1.0000  0.606410  0.988170  0.987700  Uiso  0.014236
    O1  O  1.0000  0.946290  0.963330  0.987700  Uiso  0.014236
    O1  O  1.0000  0.080670  0.013780  0.708700  Uiso  0.011494
    O1  O  1.0000  0.274880  0.034730  0.708700  Uiso  0.011494
    O1  O  1.0000  0.129220  0.080510  0.708700  Uiso  0.011494
    O1  O  1.0000  0.614760  0.009890  0.708700  Uiso  0.011494
    O1  O  1.0000  0.469100  0.055670  0.708700  Uiso  0.011494
    O1  O  1.0000  0.323440  0.101460  0.708700  Uiso  0.011494
    O1  O  1.0000  0.177780  0.147240  0.708700  Uiso  0.011494
    O1  O  1.0000  0.032110  0.193030  0.708700  Uiso  0.011494
    O1  O  1.0000  0.808980  0.030830  0.708700  Uiso  0.011494
    O1  O  1.0000  0.663310  0.076620  0.708700  Uiso  0.011494
    O1  O  1.0000  0.517650  0.122400  0.708700  Uiso  0.011494
    O1  O  1.0000  0.371990  0.168190  0.708700  Uiso  0.011494
    O1  O  1.0000  0.226330  0.213980  0.708700  Uiso  0.011494
    O1  O  1.0000  0.080670  0.259760  0.708700  Uiso  0.011494
    O1  O  1.0000  0.857530  0.097560  0.708700  Uiso  0.011494
    O1  O  1.0000  0.711870  0.143350  0.708700  Uiso  0.011494
    O1  O  1.0000  0.566210  0.189140  0.708700  Uiso  0.011494
    O1  O  1.0000  0.420550  0.234920  0.708700  Uiso  0.011494
    O1  O  1.0000  0.274880  0.280710  0.708700  Uiso  0.011494
    O1  O  1.0000  0.129220  0.326490  0.708700  Uiso  0.011494
    O1  O  1.0000  0.906080  0.164300  0.708700  Uiso  0.011494
    O1  O  1.0000  0.760420  0.210080  0.708700  Uiso  0.011494
    O1  O  1.0000  0.614760  0.255870  0.708700  Uiso  0.011494
    O1  O  1.0000  0.469100  0.301650  0.708700  Uiso  0.011494
    O1  O  1.0000  0.323440  0.347440  0.708700  Uiso  0.011494
    O1  O  1.0000  0.177780  0.393230  0.708700  Uiso  0.011494
    O1  O  1.0000  0.032110  0.439010  0.708700  Uiso  0.011494
    O1  O  1.0000  0.954640  0.231030  0.708700  Uiso  0.011494
    O1  O  1.0000  0.808980  0.276810  0.708700  Uiso  0.011494
    O1  O  1.0000  0.663310  0.322600  0.708700  Uiso  0.011494
    O1  O  1.0000  0.517650  0.368380  0.708700  Uiso  0.011494
    O1  O  1.0000  0.371990  0.414170  0.708700  Uiso  0.011494
    O1  O  1.0000  0.226330  0.459960  0.708700  Uiso  0.011494
    O1  O  1.0000  0.080670  0.505740  0.708700  Uiso  0.011494
    O1  O  1.0000  0.857530  0.343540  0.708700  Uiso  0.011494
    O1  O  1.0000  0.711870  0.389330  0.708700  Uiso  0.011494
    O1  O  1.0000  0.566210  0.435120  0.708700  Uiso  0.011494
    O1  O  1.0000  0.420550  0.480900  0.708700  Uiso  0.011494
    O1  O  1.0000  0.274880  0.526690  0.708700  Uiso  0.011494
    O1  O  1.0000  0.129220  0.572470  0.708700  Uiso  0.011494
    O1  O  1.0000  0.906080  0.410280  0.708700  Uiso  0.011494
    O1  O  1.0000  0.760420  0.456060  0.708700  Uiso  0.011494
    O1  O  1.0000  0.614760  0.501850  0.708700  Uiso  0.011494
    O1  O  1.0000  0.469100  0.547630  0.708700  Uiso  0.011494
    O1  O  1.0000  0.323440  0.593420  0.708700  Uiso  0.011494
    O1  O  1.0000  0.177780  0.639210  0.708700  Uiso  0.011494
    O1  O  1.0000  0.032110  0.684990  0.708700  Uiso  0.011494
    O1  O  1.0000  0.954640  0.477010  0.708700  Uiso  0.011494
    O1  O  1.0000  0.808980  0.522790  0.708700  Uiso  0.011494
    O1  O  1.0000  0.663310  0.568580  0.708700  Uiso  0.011494
    O1  O  1.0000  0.517650  0.614370  0.708700  Uiso  0.011494
    O1  O  1.0000  0.371990  0.660150  0.708700  Uiso  0.011494
    O1  O  1.0000  0.226330  0.705940  0.708700  Uiso  0.011494
    O1  O  1.0000  0.080670  0.751720  0.708700  Uiso  0.011494
    O1  O  1.0000  0.857530  0.589530  0.708700  Uiso  0.011494
    O1  O  1.0000  0.711870  0.635310  0.708700  Uiso  0.011494
    O1  O  1.0000  0.566210  0.681100  0.708700  Uiso  0.011494
    O1  O  1.0000  0.420550  0.726880  0.708700  Uiso  0.011494
    O1  O  1.0000  0.274880  0.772670  0.708700  Uiso  0.011494
    O1  O  1.0000  0.129220  0.818460  0.708700  Uiso  0.011494
    O1  O  1.0000  0.906080  0.656260  0.708700  Uiso  0.011494
    O1  O  1.0000  0.760420  0.702040  0.708700  Uiso  0.011494
    O1  O  1.0000  0.614760  0.747830  0.708700  Uiso  0.011494
    O1  O  1.0000  0.469100  0.793620  0.708700  Uiso  0.011494
    O1  O  1.0000  0.323440  0.839400  0.708700  Uiso  0.011494
    O1  O  1.0000  0.177780  0.885190  0.708700  Uiso  0.011494
    O1  O  1.0000  0.032110  0.930970  0.708700  Uiso  0.011494
    O1  O  1.0000  0.954640  0.722990  0.708700  Uiso  0.011494
    O1  O  1.0000  0.808980  0.768780  0.708700  Uiso  0.011494
    O1  O  1.0000  0.663310  0.814560  0.708700  Uiso  0.011494
    O1  O  1.0000  0.517650  0.860350  0.708700  Uiso  0.011494
    O1  O  1.0000  0.371990  0.906130  0.708700  Uiso  0.011494
    O1  O  1.0000  0.226330  0.951920  0.708700  Uiso  0.011494
    O1  O  1.0000  0.080670  0.997710  0.708700  Uiso  0.011494
    O1  O  1.0000  0.857530  0.835510  0.708700  Uiso  0.011494
    O1  O  1.0000  0.711870  0.881290  0.708700  Uiso  0.011494
    O1  O  1.0000  0.566210  0.927080  0.708700  Uiso  0.011494
    O1  O  1.0000  0.420550  0.972870  0.708700  Uiso  0.011494
    O1  O  1.0000  0.906080  0.902240  0.708700  Uiso  0.011494
    O1  O  1.0000  0.760420  0.948030  0.708700  Uiso  0.011494
    O1  O  1.0000  0.614760  0.993810  0.708700  Uiso  0.011494
    O1  O  1.0000  0.954640  0.968970  0.708700  Uiso  0.011494
    Mg1  Mg  0.7200  0.073780  0.039710  0.345200  Uiso  0.007781
    Mg1  Mg  0.7200  0.413660  0.014870  0.345200  Uiso  0.007781
    Mg1  Mg  0.7200  0.268000  0.060660  0.345200  Uiso  0.007781
    Mg1  Mg  0.7200  0.122340  0.106450  0.345200  Uiso  0.007781
    Mg1  Mg  0.7200  0.607880  0.035820  0.345200  Uiso  0.007781
    Mg1  Mg  0.7200  0.462210  0.081610  0.345200  Uiso  0.007781
    Mg1  Mg  0.7200  0.316550  0.127390  0.345200  Uiso  0.007781
    Mg1  Mg  0.7200  0.170890  0.173180  0.345200  Uiso  0.007781
    Mg1  Mg  0.7200  0.025230  0.218960  0.345200  Uiso  0.007781
    Mg1  Mg  0.7200  0.947750  0.010980  0.345200  Uiso  0.007781
    Mg1  Mg  0.7200  0.802090  0.056770  0.345200  Uiso  0.007781
    Mg1  Mg  0.7200  0.656430  0.102550  0.345200  Uiso  0.007781
    Mg1  Mg  0.7200  0.510770  0.148340  0.345200  Uiso  0.007781
    Mg1  Mg  0.7200  0.365110  0.194120  0.345200  Uiso  0.007781
    Mg1  Mg  0.7200  0.219440  0.239910  0.345200  Uiso  0.007781
    Mg1  Mg  0.7200  0.073780  0.285700  0.345200  Uiso  0.007781
    Mg1  Mg  0.7200  0.996310  0.077710  0.345200  Uiso  0.007781
    Mg1  Mg  0.7200  0.850650  0.123500  0.345200  Uiso  0.007781
    Mg1  Mg  0.7200  0.704980  0.169280  0.345200  Uiso  0.007781
    Mg1  Mg  0.7200  0.559320  0.215070  0.345200  Uiso  0.007781
    Mg1  Mg  0.7200  0.413660  0.260860  0.345200  Uiso  0.007781
    Mg1  Mg  0.7200  0.268000  0.306640  0.345200  Uiso  0.007781
    Mg1  Mg  0.7200  0.122340  0.352430  0.345200  Uiso  0.007781
    Mg1  Mg  0.7200  0.899200  0.190230  0.345200  Uiso  0.007781
    Mg1  Mg  0.7200  0.753540  0.236020  0.345200  Uiso  0.007781
    Mg1  Mg  0.7200  0.607880  0.281800  0.345200  Uiso  0.007781
    Mg1  Mg  0.7200  0.462210  0.327590  0.345200  Uiso  0.007781
    Mg1  Mg  0.7200  0.316550  0.373370  0.345200  Uiso  0.007781
    Mg1  Mg  0.7200  0.170890  0.419160  0.345200  Uiso  0.007781
    Mg1  Mg  0.7200  0.025230  0.464950  0.345200  Uiso  0.007781
    Mg1  Mg  0.7200  0.947750  0.256960  0.345200  Uiso  0.007781
    Mg1  Mg  0.7200  0.802090  0.302750  0.345200  Uiso  0.007781
    Mg1  Mg  0.7200  0.656430  0.348530  0.345200  Uiso  0.007781
    Mg1  Mg  0.7200  0.510770  0.394320  0.345200  Uiso  0.007781
    Mg1  Mg  0.7200  0.365110  0.440110  0.345200  Uiso  0.007781
    Mg1  Mg  0.7200  0.219440  0.485890  0.345200  Uiso  0.007781
    Mg1  Mg  0.7200  0.073780  0.531680  0.345200  Uiso  0.007781
    Mg1  Mg  0.7200  0.996310  0.323690  0.345200  Uiso  0.007781
    Mg1  Mg  0.7200  0.850650  0.369480  0.345200  Uiso  0.007781
    Mg1  Mg  0.7200  0.704980  0.415270  0.345200  Uiso  0.007781
    Mg1  Mg  0.7200  0.559320  0.461050  0.345200  Uiso  0.007781
    Mg1  Mg  0.7200  0.413660  0.506840  0.345200  Uiso  0.007781
    Mg1  Mg  0.7200  0.268000  0.552620  0.345200  Uiso  0.007781
    Mg1  Mg  0.7200  0.122340  0.598410  0.345200  Uiso  0.007781
    Mg1  Mg  0.7200  0.899200  0.436210  0.345200  Uiso  0.007781
    Mg1  Mg  0.7200  0.753540  0.482000  0.345200  Uiso  0.007781
    Mg1  Mg  0.7200  0.607880  0.527780  0.345200  Uiso  0.007781
    Mg1  Mg  0.7200  0.462210  0.573570  0.345200  Uiso  0.007781
    Mg1  Mg  0.7200  0.316550  0.619350  0.345200  Uiso  0.007781
    Mg1  Mg  0.7200  0.170890  0.665140  0.345200  Uiso  0.007781
    Mg1  Mg  0.7200  0.025230  0.710930  0.345200  Uiso  0.007781
    Mg1  Mg  0.7200  0.947750  0.502940  0.345200  Uiso  0.007781
    Mg1  Mg  0.7200  0.802090  0.548730  0.345200  Uiso  0.007781
    Mg1  Mg  0.7200  0.656430  0.594510  0.345200  Uiso  0.007781
    Mg1  Mg  0.7200  0.510770  0.640300  0.345200  Uiso  0.007781
    Mg1  Mg  0.7200  0.365110  0.686090  0.345200  Uiso  0.007781
    Mg1  Mg  0.7200  0.219440  0.731870  0.345200  Uiso  0.007781
    Mg1  Mg  0.7200  0.073780  0.777660  0.345200  Uiso  0.007781
    Mg1  Mg  0.7200  0.996310  0.569670  0.345200  Uiso  0.007781
    Mg1  Mg  0.7200  0.850650  0.615460  0.345200  Uiso  0.007781
    Mg1  Mg  0.7200  0.704980  0.661250  0.345200  Uiso  0.007781
    Mg1  Mg  0.7200  0.559320  0.707030  0.345200  Uiso  0.007781
    Mg1  Mg  0.7200  0.413660  0.752820  0.345200  Uiso  0.007781
    Mg1  Mg  0.7200  0.268000  0.798600  0.345200  Uiso  0.007781
    Mg1  Mg  0.7200  0.122340  0.844390  0.345200  Uiso  0.007781
    Mg1  Mg  0.7200  0.899200  0.682190  0.345200  Uiso  0.007781
    Mg1  Mg  0.7200  0.753540  0.727980  0.345200  Uiso  0.007781
    Mg1  Mg  0.7200  0.607880  0.773760  0.345200  Uiso  0.007781
    Mg1  Mg  0.7200  0.462210  0.819550  0.345200  Uiso  0.007781
    Mg1  Mg  0.7200  0.316550  0.865340  0.345200  Uiso  0.007781
    Mg1  Mg  0.7200  0.170890  0.911120  0.345200  Uiso  0.007781
    Mg1  Mg  0.7200  0.025230  0.956910  0.345200  Uiso  0.007781
    Mg1  Mg  0.7200  0.947750  0.748920  0.345200  Uiso  0.007781
    Mg1  Mg  0.7200  0.802090  0.794710  0.345200  Uiso  0.007781
    Mg1  Mg  0.7200  0.656430  0.840500  0.345200  Uiso  0.007781
    Mg1  Mg  0.7200  0.510770  0.886280  0.345200  Uiso  0.007781
    Mg1  Mg  0.7200  0.365110  0.932070  0.345200  Uiso  0.007781
    Mg1  Mg  0.7200  0.219440  0.977850  0.345200  Uiso  0.007781
    Mg1  Mg  0.7200  0.996310  0.815660  0.345200  Uiso  0.007781
    Mg1  Mg  0.7200  0.850650  0.861440  0.345200  Uiso  0.007781
    Mg1  Mg  0.7200  0.704980  0.907230  0.345200  Uiso  0.007781
    Mg1  Mg  0.7200  0.559320  0.953010  0.345200  Uiso  0.007781
    Mg1  Mg  0.7200  0.413660  0.998800  0.345200  Uiso  0.007781
    Mg1  Mg  0.7200  0.899200  0.928170  0.345200  Uiso  0.007781
    Mg1  Mg  0.7200  0.753540  0.973960  0.345200  Uiso  0.007781
    Mg1  Mg  0.7200  0.947750  0.994910  0.345200  Uiso  0.007781
    Fe1  Fe  0.2800  0.073780  0.039710  0.345200  Uiso  0.007781
    Fe1  Fe  0.2800  0.413660  0.014870  0.345200  Uiso  0.007781
    Fe1  Fe  0.2800  0.268000  0.060660  0.345200  Uiso  0.007781
    Fe1  Fe  0.2800  0.122340  0.106450  0.345200  Uiso  0.007781
    Fe1  Fe  0.2800  0.607880  0.035820  0.345200  Uiso  0.007781
    Fe1  Fe  0.2800  0.462210  0.081610  0.345200  Uiso  0.007781
    Fe1  Fe  0.2800  0.316550  0.127390  0.345200  Uiso  0.007781
    Fe1  Fe  0.2800  0.170890  0.173180  0.345200  Uiso  0.007781
    Fe1  Fe  0.2800  0.025230  0.218960  0.345200  Uiso  0.007781
    Fe1  Fe  0.2800  0.947750  0.010980  0.345200  Uiso  0.007781
    Fe1  Fe  0.2800  0.802090  0.056770  0.345200  Uiso  0.007781
    Fe1  Fe  0.2800  0.656430  0.102550  0.345200  Uiso  0.007781
    Fe1  Fe  0.2800  0.510770  0.148340  0.345200  Uiso  0.007781
    Fe1  Fe  0.2800  0.365110  0.194120  0.345200  Uiso  0.007781
    Fe1  Fe  0.2800  0.219440  0.239910  0.345200  Uiso  0.007781
    Fe1  Fe  0.2800  0.073780  0.285700  0.345200  Uiso  0.007781
    Fe1  Fe  0.2800  0.996310  0.077710  0.345200  Uiso  0.007781
    Fe1  Fe  0.2800  0.850650  0.123500  0.345200  Uiso  0.007781
    Fe1  Fe  0.2800  0.704980  0.169280  0.345200  Uiso  0.007781
    Fe1  Fe  0.2800  0.559320  0.215070  0.345200  Uiso  0.007781
    Fe1  Fe  0.2800  0.413660  0.260860  0.345200  Uiso  0.007781
    Fe1  Fe  0.2800  0.268000  0.306640  0.345200  Uiso  0.007781
    Fe1  Fe  0.2800  0.122340  0.352430  0.345200  Uiso  0.007781
    Fe1  Fe  0.2800  0.899200  0.190230  0.345200  Uiso  0.007781
    Fe1  Fe  0.2800  0.753540  0.236020  0.345200  Uiso  0.007781
    Fe1  Fe  0.2800  0.607880  0.281800  0.345200  Uiso  0.007781
    Fe1  Fe  0.2800  0.462210  0.327590  0.345200  Uiso  0.007781
    Fe1  Fe  0.2800  0.316550  0.373370  0.345200  Uiso  0.007781
    Fe1  Fe  0.2800  0.170890  0.419160  0.345200  Uiso  0.007781
    Fe1  Fe  0.2800  0.025230  0.464950  0.345200  Uiso  0.007781
    Fe1  Fe  0.2800  0.947750  0.256960  0.345200  Uiso  0.007781
    Fe1  Fe  0.2800  0.802090  0.302750  0.345200  Uiso  0.007781
    Fe1  Fe  0.2800  0.656430  0.348530  0.345200  Uiso  0.007781
    Fe1  Fe  0.2800  0.510770  0.394320  0.345200  Uiso  0.007781
    Fe1  Fe  0.2800  0.365110  0.440110  0.345200  Uiso  0.007781
    Fe1  Fe  0.2800  0.219440  0.485890  0.345200  Uiso  0.007781
    Fe1  Fe  0.2800  0.073780  0.531680  0.345200  Uiso  0.007781
    Fe1  Fe  0.2800  0.996310  0.323690  0.345200  Uiso  0.007781
    Fe1  Fe  0.2800  0.850650  0.369480  0.345200  Uiso  0.007781
    Fe1  Fe  0.2800  0.704980  0.415270  0.345200  Uiso  0.007781
    Fe1  Fe  0.2800  0.559320  0.461050  0.345200  Uiso  0.007781
    Fe1  Fe  0.2800  0.413660  0.506840  0.345200  Uiso  0.007781
    Fe1  Fe  0.2800  0.268000  0.552620  0.345200  Uiso  0.007781
    Fe1  Fe  0.2800  0.122340  0.598410  0.345200  Uiso  0.007781
    Fe1  Fe  0.2800  0.899200  0.436210  0.345200  Uiso  0.007781
    Fe1  Fe  0.2800  0.753540  0.482000  0.345200  Uiso  0.007781
    Fe1  Fe  0.2800  0.607880  0.527780  0.345200  Uiso  0.007781
    Fe1  Fe  0.2800  0.462210  0.573570  0.345200  Uiso  0.007781
    Fe1  Fe  0.2800  0.316550  0.619350  0.345200  Uiso  0.007781
    Fe1  Fe  0.2800  0.170890  0.665140  0.345200  Uiso  0.007781
    Fe1  Fe  0.2800  0.025230  0.710930  0.345200  Uiso  0.007781
    Fe1  Fe  0.2800  0.947750  0.502940  0.345200  Uiso  0.007781
    Fe1  Fe  0.2800  0.802090  0.548730  0.345200  Uiso  0.007781
    Fe1  Fe  0.2800  0.656430  0.594510  0.345200  Uiso  0.007781
    Fe1  Fe  0.2800  0.510770  0.640300  0.345200  Uiso  0.007781
    Fe1  Fe  0.2800  0.365110  0.686090  0.345200  Uiso  0.007781
    Fe1  Fe  0.2800  0.219440  0.731870  0.345200  Uiso  0.007781
    Fe1  Fe  0.2800  0.073780  0.777660  0.345200  Uiso  0.007781
    Fe1  Fe  0.2800  0.996310  0.569670  0.345200  Uiso  0.007781
    Fe1  Fe  0.2800  0.850650  0.615460  0.345200  Uiso  0.007781
    Fe1  Fe  0.2800  0.704980  0.661250  0.345200  Uiso  0.007781
    Fe1  Fe  0.2800  0.559320  0.707030  0.345200  Uiso  0.007781
    Fe1  Fe  0.2800  0.413660  0.752820  0.345200  Uiso  0.007781
    Fe1  Fe  0.2800  0.268000  0.798600  0.345200  Uiso  0.007781
    Fe1  Fe  0.2800  0.122340  0.844390  0.345200  Uiso  0.007781
    Fe1  Fe  0.2800  0.899200  0.682190  0.345200  Uiso  0.007781
    Fe1  Fe  0.2800  0.753540  0.727980  0.345200  Uiso  0.007781
    Fe1  Fe  0.2800  0.607880  0.773760  0.345200  Uiso  0.007781
    Fe1  Fe  0.2800  0.462210  0.819550  0.345200  Uiso  0.007781
    Fe1  Fe  0.2800  0.316550  0.865340  0.345200  Uiso  0.007781
    Fe1  Fe  0.2800  0.170890  0.911120  0.345200  Uiso  0.007781
    Fe1  Fe  0.2800  0.025230  0.956910  0.345200  Uiso  0.007781
    Fe1  Fe  0.2800  0.947750  0.748920  0.345200  Uiso  0.007781
    Fe1  Fe  0.2800  0.802090  0.794710  0.345200  Uiso  0.007781
    Fe1  Fe  0.2800  0.656430  0.840500  0.345200  Uiso  0.007781
    Fe1  Fe  0.2800  0.510770  0.886280  0.345200  Uiso  0.007781
    Fe1  Fe  0.2800  0.365110  0.932070  0.345200  Uiso  0.007781
    Fe1  Fe  0.2800  0.219440  0.977850  0.345200  Uiso  0.007781
    Fe1  Fe  0.2800  0.996310  0.815660  0.345200  Uiso  0.007781
    Fe1  Fe  0.2800  0.850650  0.861440  0.345200  Uiso  0.007781
    Fe1  Fe  0.2800  0.704980  0.907230  0.345200  Uiso  0.007781
    Fe1  Fe  0.2800  0.559320  0.953010  0.345200  Uiso  0.007781
    Fe1  Fe  0.2800  0.413660  0.998800  0.345200  Uiso  0.007781
    Fe1  Fe  0.2800  0.899200  0.928170  0.345200  Uiso  0.007781
    Fe1  Fe  0.2800  0.753540  0.973960  0.345200  Uiso  0.007781
    Fe1  Fe  0.2800  0.947750  0.994910  0.345200  Uiso  0.007781
    Fe1  Fe  0.7600  0.074700  0.039590  0.981700  Uiso  0.015458
    Fe1  Fe  0.7600  0.414570  0.014750  0.981700  Uiso  0.015458
    Fe1  Fe  0.7600  0.268910  0.060540  0.981700  Uiso  0.015458
    Fe1  Fe  0.7600  0.123250  0.106320  0.981700  Uiso  0.015458
    Fe1  Fe  0.7600  0.608790  0.035700  0.981700  Uiso  0.015458
    Fe1  Fe  0.7600  0.463130  0.081480  0.981700  Uiso  0.015458
    Fe1  Fe  0.7600  0.317470  0.127270  0.981700  Uiso  0.015458
    Fe1  Fe  0.7600  0.171800  0.173050  0.981700  Uiso  0.015458
    Fe1  Fe  0.7600  0.026140  0.218840  0.981700  Uiso  0.015458
    Fe1  Fe  0.7600  0.948670  0.010860  0.981700  Uiso  0.015458
    Fe1  Fe  0.7600  0.803000  0.056640  0.981700  Uiso  0.015458
    Fe1  Fe  0.7600  0.657340  0.102430  0.981700  Uiso  0.015458
    Fe1  Fe  0.7600  0.511680  0.148210  0.981700  Uiso  0.015458
    Fe1  Fe  0.7600  0.366020  0.194000  0.981700  Uiso  0.015458
    Fe1  Fe  0.7600  0.220360  0.239790  0.981700  Uiso  0.015458
    Fe1  Fe  0.7600  0.074700  0.285570  0.981700  Uiso  0.015458
    Fe1  Fe  0.7600  0.997220  0.077590  0.981700  Uiso  0.015458
    Fe1  Fe  0.7600  0.851560  0.123370  0.981700  Uiso  0.015458
    Fe1  Fe  0.7600  0.705900  0.169160  0.981700  Uiso  0.015458
    Fe1  Fe  0.7600  0.560230  0.214950  0.981700  Uiso  0.015458
    Fe1  Fe  0.7600  0.414570  0.260730  0.981700  Uiso  0.015458
    Fe1  Fe  0.7600  0.268910  0.306520  0.981700  Uiso  0.015458
    Fe1  Fe  0.7600  0.123250  0.352300  0.981700  Uiso  0.015458
    Fe1  Fe  0.7600  0.900110  0.190110  0.981700  Uiso  0.015458
    Fe1  Fe  0.7600  0.754450  0.235890  0.981700  Uiso  0.015458
    Fe1  Fe  0.7600  0.608790  0.281680  0.981700  Uiso  0.015458
    Fe1  Fe  0.7600  0.463130  0.327460  0.981700  Uiso  0.015458
    Fe1  Fe  0.7600  0.317470  0.373250  0.981700  Uiso  0.015458
    Fe1  Fe  0.7600  0.171800  0.419040  0.981700  Uiso  0.015458
    Fe1  Fe  0.7600  0.026140  0.464820  0.981700  Uiso  0.015458
    Fe1  Fe  0.7600  0.948670  0.256840  0.981700  Uiso  0.015458
    Fe1  Fe  0.7600  0.803000  0.302620  0.981700  Uiso  0.015458
    Fe1  Fe  0.7600  0.657340  0.348410  0.981700  Uiso  0.015458
    Fe1  Fe  0.7600  0.511680  0.394200  0.981700  Uiso  0.015458
    Fe1  Fe  0.7600  0.366020  0.439980  0.981700  Uiso  0.015458
    Fe1  Fe  0.7600  0.220360  0.485770  0.981700  Uiso  0.015458
    Fe1  Fe  0.7600  0.074700  0.531550  0.981700  Uiso  0.015458
    Fe1  Fe  0.7600  0.997220  0.323570  0.981700  Uiso  0.015458
    Fe1  Fe  0.7600  0.851560  0.369360  0.981700  Uiso  0.015458
    Fe1  Fe  0.7600  0.705900  0.415140  0.981700  Uiso  0.015458
    Fe1  Fe  0.7600  0.560230  0.460930  0.981700  Uiso  0.015458
    Fe1  Fe  0.7600  0.414570  0.506710  0.981700  Uiso  0.015458
    Fe1  Fe  0.7600  0.268910  0.552500  0.981700  Uiso  0.015458
    Fe1  Fe  0.7600  0.123250  0.598290  0.981700  Uiso  0.015458
    Fe1  Fe  0.7600  0.900110  0.436090  0.981700  Uiso  0.015458
    Fe1  Fe  0.7600  0.754450  0.481870  0.981700  Uiso  0.015458
    Fe1  Fe  0.7600  0.608790  0.527660  0.981700  Uiso  0.015458
    Fe1  Fe  0.7600  0.463130  0.573450  0.981700  Uiso  0.015458
    Fe1  Fe  0.7600  0.317470  0.619230  0.981700  Uiso  0.015458
    Fe1  Fe  0.7600  0.171800  0.665020  0.981700  Uiso  0.015458
    Fe1  Fe  0.7600  0.026140  0.710800  0.981700  Uiso  0.015458
    Fe1  Fe  0.7600  0.948670  0.502820  0.981700  Uiso  0.015458
    Fe1  Fe  0.7600  0.803000  0.548610  0.981700  Uiso  0.015458
    Fe1  Fe  0.7600  0.657340  0.594390  0.981700  Uiso  0.015458
    Fe1  Fe  0.7600  0.511680  0.640180  0.981700  Uiso  0.015458
    Fe1  Fe  0.7600  0.366020  0.685960  0.981700  Uiso  0.015458
    Fe1  Fe  0.7600  0.220360  0.731750  0.981700  Uiso  0.015458
    Fe1  Fe  0.7600  0.074700  0.777540  0.981700  Uiso  0.015458
    Fe1  Fe  0.7600  0.997220  0.569550  0.981700  Uiso  0.015458
    Fe1  Fe  0.7600  0.851560  0.615340  0.981700  Uiso  0.015458
    Fe1  Fe  0.7600  0.705900  0.661120  0.981700  Uiso  0.015458
    Fe1  Fe  0.7600  0.560230  0.706910  0.981700  Uiso  0.015458
    Fe1  Fe  0.7600  0.414570  0.752700  0.981700  Uiso  0.015458
    Fe1  Fe  0.7600  0.268910  0.798480  0.981700  Uiso  0.015458
    Fe1  Fe  0.7600  0.123250  0.844270  0.981700  Uiso  0.015458
    Fe1  Fe  0.7600  0.900110  0.682070  0.981700  Uiso  0.015458
    Fe1  Fe  0.7600  0.754450  0.727860  0.981700  Uiso  0.015458
    Fe1  Fe  0.7600  0.608790  0.773640  0.981700  Uiso  0.015458
    Fe1  Fe  0.7600  0.463130  0.819430  0.981700  Uiso  0.015458
    Fe1  Fe  0.7600  0.317470  0.865210  0.981700  Uiso  0.015458
    Fe1  Fe  0.7600  0.171800  0.911000  0.981700  Uiso  0.015458
    Fe1  Fe  0.7600  0.026140  0.956790  0.981700  Uiso  0.015458
    Fe1  Fe  0.7600  0.948670  0.748800  0.981700  Uiso  0.015458
    Fe1  Fe  0.7600  0.803000  0.794590  0.981700  Uiso  0.015458
    Fe1  Fe  0.7600  0.657340  0.840370  0.981700  Uiso  0.015458
    Fe1  Fe  0.7600  0.511680  0.886160  0.981700  Uiso  0.015458
    Fe1  Fe  0.7600  0.366020  0.931950  0.981700  Uiso  0.015458
    Fe1  Fe  0.7600  0.220360  0.977730  0.981700  Uiso  0.015458
    Fe1  Fe  0.7600  0.997220  0.815530  0.981700  Uiso  0.015458
    Fe1  Fe  0.7600  0.851560  0.861320  0.981700  Uiso  0.015458
    Fe1  Fe  0.7600  0.705900  0.907110  0.981700  Uiso  0.015458
    Fe1  Fe  0.7600  0.560230  0.952890  0.981700  Uiso  0.015458
    Fe1  Fe  0.7600  0.414570  0.998680  0.981700  Uiso  0.015458
    Fe1  Fe  0.7600  0.900110  0.928050  0.981700  Uiso  0.015458
    Fe1  Fe  0.7600  0.754450  0.973840  0.981700  Uiso  0.015458
    Fe1  Fe  0.7600  0.948670  0.994780  0.981700  Uiso  0.015458
    Ca1  Ca  0.1800  0.074700  0.039590  0.981700  Uiso  0.015458
    Ca1  Ca  0.1800  0.414570  0.014750  0.981700  Uiso  0.015458
    Ca1  Ca  0.1800  0.268910  0.060540  0.981700  Uiso  0.015458
    Ca1  Ca  0.1800  0.123250  0.106320  0.981700  Uiso  0.015458
    Ca1  Ca  0.1800  0.608790  0.035700  0.981700  Uiso  0.015458
    Ca1  Ca  0.1800  0.463130  0.081480  0.981700  Uiso  0.015458
    Ca1  Ca  0.1800  0.317470  0.127270  0.981700  Uiso  0.015458
    Ca1  Ca  0.1800  0.171800  0.173050  0.981700  Uiso  0.015458
    Ca1  Ca  0.1800  0.026140  0.218840  0.981700  Uiso  0.015458
    Ca1  Ca  0.1800  0.948670  0.010860  0.981700  Uiso  0.015458
    Ca1  Ca  0.1800  0.803000  0.056640  0.981700  Uiso  0.015458
    Ca1  Ca  0.1800  0.657340  0.102430  0.981700  Uiso  0.015458
    Ca1  Ca  0.1800  0.511680  0.148210  0.981700  Uiso  0.015458
    Ca1  Ca  0.1800  0.366020  0.194000  0.981700  Uiso  0.015458
    Ca1  Ca  0.1800  0.220360  0.239790  0.981700  Uiso  0.015458
    Ca1  Ca  0.1800  0.074700  0.285570  0.981700  Uiso  0.015458
    Ca1  Ca  0.1800  0.997220  0.077590  0.981700  Uiso  0.015458
    Ca1  Ca  0.1800  0.851560  0.123370  0.981700  Uiso  0.015458
    Ca1  Ca  0.1800  0.705900  0.169160  0.981700  Uiso  0.015458
    Ca1  Ca  0.1800  0.560230  0.214950  0.981700  Uiso  0.015458
    Ca1  Ca  0.1800  0.414570  0.260730  0.981700  Uiso  0.015458
    Ca1  Ca  0.1800  0.268910  0.306520  0.981700  Uiso  0.015458
    Ca1  Ca  0.1800  0.123250  0.352300  0.981700  Uiso  0.015458
    Ca1  Ca  0.1800  0.900110  0.190110  0.981700  Uiso  0.015458
    Ca1  Ca  0.1800  0.754450  0.235890  0.981700  Uiso  0.015458
    Ca1  Ca  0.1800  0.608790  0.281680  0.981700  Uiso  0.015458
    Ca1  Ca  0.1800  0.463130  0.327460  0.981700  Uiso  0.015458
    Ca1  Ca  0.1800  0.317470  0.373250  0.981700  Uiso  0.015458
    Ca1  Ca  0.1800  0.171800  0.419040  0.981700  Uiso  0.015458
    Ca1  Ca  0.1800  0.026140  0.464820  0.981700  Uiso  0.015458
    Ca1  Ca  0.1800  0.948670  0.256840  0.981700  Uiso  0.015458
    Ca1  Ca  0.1800  0.803000  0.302620  0.981700  Uiso  0.015458
    Ca1  Ca  0.1800  0.657340  0.348410  0.981700  Uiso  0.015458
    Ca1  Ca  0.1800  0.511680  0.394200  0.981700  Uiso  0.015458
    Ca1  Ca  0.1800  0.366020  0.439980  0.981700  Uiso  0.015458
    Ca1  Ca  0.1800  0.220360  0.485770  0.981700  Uiso  0.015458
    Ca1  Ca  0.1800  0.074700  0.531550  0.981700  Uiso  0.015458
    Ca1  Ca  0.1800  0.997220  0.323570  0.981700  Uiso  0.015458
    Ca1  Ca  0.1800  0.851560  0.369360  0.981700  Uiso  0.015458
    Ca1  Ca  0.1800  0.705900  0.415140  0.981700  Uiso  0.015458
    Ca1  Ca  0.1800  0.560230  0.460930  0.981700  Uiso  0.015458
    Ca1  Ca  0.1800  0.414570  0.506710  0.981700  Uiso  0.015458
    Ca1  Ca  0.1800  0.268910  0.552500  0.981700  Uiso  0.015458
    Ca1  Ca  0.1800  0.123250  0.598290  0.981700  Uiso  0.015458
    Ca1  Ca  0.1800  0.900110  0.436090  0.981700  Uiso  0.015458
    Ca1  Ca  0.1800  0.754450  0.481870  0.981700  Uiso  0.015458
    Ca1  Ca  0.1800  0.608790  0.527660  0.981700  Uiso  0.015458
    Ca1  Ca  0.1800  0.463130  0.573450  0.981700  Uiso  0.015458
    Ca1  Ca  0.1800  0.317470  0.619230  0.981700  Uiso  0.015458
    Ca1  Ca  0.1800  0.171800  0.665020  0.981700  Uiso  0.015458
    Ca1  Ca  0.1800  0.026140  0.710800  0.981700  Uiso  0.015458
    Ca1  Ca  0.1800  0.948670  0.502820  0.981700  Uiso  0.015458
    Ca1  Ca  0.1800  0.803000  0.548610  0.981700  Uiso  0.015458
    Ca1  Ca  0.1800  0.657340  0.594390  0.981700  Uiso  0.015458
    Ca1  Ca  0.1800  0.511680  0.640180  0.981700  Uiso  0.015458
    Ca1  Ca  0.1800  0.366020  0.685960  0.981700  Uiso  0.015458
    Ca1  Ca  0.1800  0.220360  0.731750  0.981700  Uiso  0.015458
    Ca1  Ca  0.1800  0.074700  0.777540  0.981700  Uiso  0.015458
    Ca1  Ca  0.1800  0.997220  0.569550  0.981700  Uiso  0.015458
    Ca1  Ca  0.1800  0.851560  0.615340  0.981700  Uiso  0.015458
    Ca1  Ca  0.1800  0.705900  0.661120  0.981700  Uiso  0.015458
    Ca1  Ca  0.1800  0.560230  0.706910  0.981700  Uiso  0.015458
    Ca1  Ca  0.1800  0.414570  0.752700  0.981700  Uiso  0.015458
    Ca1  Ca  0.1800  0.268910  0.798480  0.981700  Uiso  0.015458
    Ca1  Ca  0.1800  0.123250  0.844270  0.981700  Uiso  0.015458
    Ca1  Ca  0.1800  0.900110  0.682070  0.981700  Uiso  0.015458
    Ca1  Ca  0.1800  0.754450  0.727860  0.981700  Uiso  0.015458
    Ca1  Ca  0.1800  0.608790  0.773640  0.981700  Uiso  0.015458
    Ca1  Ca  0.1800  0.463130  0.819430  0.981700  Uiso  0.015458
    Ca1  Ca  0.1800  0.317470  0.865210  0.981700  Uiso  0.015458
    Ca1  Ca  0.1800  0.171800  0.911000  0.981700  Uiso  0.015458
    Ca1  Ca  0.1800  0.026140  0.956790  0.981700  Uiso  0.015458
    Ca1  Ca  0.1800  0.948670  0.748800  0.981700  Uiso  0.015458
    Ca1  Ca  0.1800  0.803000  0.794590  0.981700  Uiso  0.015458
    Ca1  Ca  0.1800  0.657340  0.840370  0.981700  Uiso  0.015458
    Ca1  Ca  0.1800  0.511680  0.886160  0.981700  Uiso  0.015458
    Ca1  Ca  0.1800  0.366020  0.931950  0.981700  Uiso  0.015458
    Ca1  Ca  0.1800  0.220360  0.977730  0.981700  Uiso  0.015458
    Ca1  Ca  0.1800  0.997220  0.815530  0.981700  Uiso  0.015458
    Ca1  Ca  0.1800  0.851560  0.861320  0.981700  Uiso  0.015458
    Ca1  Ca  0.1800  0.705900  0.907110  0.981700  Uiso  0.015458
    Ca1  Ca  0.1800  0.560230  0.952890  0.981700  Uiso  0.015458
    Ca1  Ca  0.1800  0.414570  0.998680  0.981700  Uiso  0.015458
    Ca1  Ca  0.1800  0.900110  0.928050  0.981700  Uiso  0.015458
    Ca1  Ca  0.1800  0.754450  0.973840  0.981700  Uiso  0.015458
    Ca1  Ca  0.1800  0.948670  0.994780  0.981700  Uiso  0.015458
    Mg1  Mg  0.0600  0.074700  0.039590  0.981700  Uiso  0.015458
    Mg1  Mg  0.0600  0.414570  0.014750  0.981700  Uiso  0.015458
    Mg1  Mg  0.0600  0.268910  0.060540  0.981700  Uiso  0.015458
    Mg1  Mg  0.0600  0.123250  0.106320  0.981700  Uiso  0.015458
    Mg1  Mg  0.0600  0.608790  0.035700  0.981700  Uiso  0.015458
    Mg1  Mg  0.0600  0.463130  0.081480  0.981700  Uiso  0.015458
    Mg1  Mg  0.0600  0.317470  0.127270  0.981700  Uiso  0.015458
    Mg1  Mg  0.0600  0.171800  0.173050  0.981700  Uiso  0.015458
    Mg1  Mg  0.0600  0.026140  0.218840  0.981700  Uiso  0.015458
    Mg1  Mg  0.0600  0.948670  0.010860  0.981700  Uiso  0.015458
    Mg1  Mg  0.0600  0.803000  0.056640  0.981700  Uiso  0.015458
    Mg1  Mg  0.0600  0.657340  0.102430  0.981700  Uiso  0.015458
    Mg1  Mg  0.0600  0.511680  0.148210  0.981700  Uiso  0.015458
    Mg1  Mg  0.0600  0.366020  0.194000  0.981700  Uiso  0.015458
    Mg1  Mg  0.0600  0.220360  0.239790  0.981700  Uiso  0.015458
    Mg1  Mg  0.0600  0.074700  0.285570  0.981700  Uiso  0.015458
    Mg1  Mg  0.0600  0.997220  0.077590  0.981700  Uiso  0.015458
    Mg1  Mg  0.0600  0.851560  0.123370  0.981700  Uiso  0.015458
    Mg1  Mg  0.0600  0.705900  0.169160  0.981700  Uiso  0.015458
    Mg1  Mg  0.0600  0.560230  0.214950  0.981700  Uiso  0.015458
    Mg1  Mg  0.0600  0.414570  0.260730  0.981700  Uiso  0.015458
    Mg1  Mg  0.0600  0.268910  0.306520  0.981700  Uiso  0.015458
    Mg1  Mg  0.0600  0.123250  0.352300  0.981700  Uiso  0.015458
    Mg1  Mg  0.0600  0.900110  0.190110  0.981700  Uiso  0.015458
    Mg1  Mg  0.0600  0.754450  0.235890  0.981700  Uiso  0.015458
    Mg1  Mg  0.0600  0.608790  0.281680  0.981700  Uiso  0.015458
    Mg1  Mg  0.0600  0.463130  0.327460  0.981700  Uiso  0.015458
    Mg1  Mg  0.0600  0.317470  0.373250  0.981700  Uiso  0.015458
    Mg1  Mg  0.0600  0.171800  0.419040  0.981700  Uiso  0.015458
    Mg1  Mg  0.0600  0.026140  0.464820  0.981700  Uiso  0.015458
    Mg1  Mg  0.0600  0.948670  0.256840  0.981700  Uiso  0.015458
    Mg1  Mg  0.0600  0.803000  0.302620  0.981700  Uiso  0.015458
    Mg1  Mg  0.0600  0.657340  0.348410  0.981700  Uiso  0.015458
    Mg1  Mg  0.0600  0.511680  0.394200  0.981700  Uiso  0.015458
    Mg1  Mg  0.0600  0.366020  0.439980  0.981700  Uiso  0.015458
    Mg1  Mg  0.0600  0.220360  0.485770  0.981700  Uiso  0.015458
    Mg1  Mg  0.0600  0.074700  0.531550  0.981700  Uiso  0.015458
    Mg1  Mg  0.0600  0.997220  0.323570  0.981700  Uiso  0.015458
    Mg1  Mg  0.0600  0.851560  0.369360  0.981700  Uiso  0.015458
    Mg1  Mg  0.0600  0.705900  0.415140  0.981700  Uiso  0.015458
    Mg1  Mg  0.0600  0.560230  0.460930  0.981700  Uiso  0.015458
    Mg1  Mg  0.0600  0.414570  0.506710  0.981700  Uiso  0.015458
    Mg1  Mg  0.0600  0.268910  0.552500  0.981700  Uiso  0.015458
    Mg1  Mg  0.0600  0.123250  0.598290  0.981700  Uiso  0.015458
    Mg1  Mg  0.0600  0.900110  0.436090  0.981700  Uiso  0.015458
    Mg1  Mg  0.0600  0.754450  0.481870  0.981700  Uiso  0.015458
    Mg1  Mg  0.0600  0.608790  0.527660  0.981700  Uiso  0.015458
    Mg1  Mg  0.0600  0.463130  0.573450  0.981700  Uiso  0.015458
    Mg1  Mg  0.0600  0.317470  0.619230  0.981700  Uiso  0.015458
    Mg1  Mg  0.0600  0.171800  0.665020  0.981700  Uiso  0.015458
    Mg1  Mg  0.0600  0.026140  0.710800  0.981700  Uiso  0.015458
    Mg1  Mg  0.0600  0.948670  0.502820  0.981700  Uiso  0.015458
    Mg1  Mg  0.0600  0.803000  0.548610  0.981700  Uiso  0.015458
    Mg1  Mg  0.0600  0.657340  0.594390  0.981700  Uiso  0.015458
    Mg1  Mg  0.0600  0.511680  0.640180  0.981700  Uiso  0.015458
    Mg1  Mg  0.0600  0.366020  0.685960  0.981700  Uiso  0.015458
    Mg1  Mg  0.0600  0.220360  0.731750  0.981700  Uiso  0.015458
    Mg1  Mg  0.0600  0.074700  0.777540  0.981700  Uiso  0.015458
    Mg1  Mg  0.0600  0.997220  0.569550  0.981700  Uiso  0.015458
    Mg1  Mg  0.0600  0.851560  0.615340  0.981700  Uiso  0.015458
    Mg1  Mg  0.0600  0.705900  0.661120  0.981700  Uiso  0.015458
    Mg1  Mg  0.0600  0.560230  0.706910  0.981700  Uiso  0.015458
    Mg1  Mg  0.0600  0.414570  0.752700  0.981700  Uiso  0.015458
    Mg1  Mg  0.0600  0.268910  0.798480  0.981700  Uiso  0.015458
    Mg1  Mg  0.0600  0.123250  0.844270  0.981700  Uiso  0.015458
    Mg1  Mg  0.0600  0.900110  0.682070  0.981700  Uiso  0.015458
    Mg1  Mg  0.0600  0.754450  0.727860  0.981700  Uiso  0.015458
    Mg1  Mg  0.0600  0.608790  0.773640  0.981700  Uiso  0.015458
    Mg1  Mg  0.0600  0.463130  0.819430  0.981700  Uiso  0.015458
    Mg1  Mg  0.0600  0.317470  0.865210  0.981700  Uiso  0.015458
    Mg1  Mg  0.0600  0.171800  0.911000  0.981700  Uiso  0.015458
    Mg1  Mg  0.0600  0.026140  0.956790  0.981700  Uiso  0.015458
    Mg1  Mg  0.0600  0.948670  0.748800  0.981700  Uiso  0.015458
    Mg1  Mg  0.0600  0.803000  0.794590  0.981700  Uiso  0.015458
    Mg1  Mg  0.0600  0.657340  0.840370  0.981700  Uiso  0.015458
    Mg1  Mg  0.0600  0.511680  0.886160  0.981700  Uiso  0.015458
    Mg1  Mg  0.0600  0.366020  0.931950  0.981700  Uiso  0.015458
    Mg1  Mg  0.0600  0.220360  0.977730  0.981700  Uiso  0.015458
    Mg1  Mg  0.0600  0.997220  0.815530  0.981700  Uiso  0.015458
    Mg1  Mg  0.0600  0.851560  0.861320  0.981700  Uiso  0.015458
    Mg1  Mg  0.0600  0.705900  0.907110  0.981700  Uiso  0.015458
    Mg1  Mg  0.0600  0.560230  0.952890  0.981700  Uiso  0.015458
    Mg1  Mg  0.0600  0.414570  0.998680  0.981700  Uiso  0.015458
    Mg1  Mg  0.0600  0.900110  0.928050  0.981700  Uiso  0.015458
    Mg1  Mg  0.0600  0.754450  0.973840  0.981700  Uiso  0.015458
    Mg1  Mg  0.0600  0.948670  0.994780  0.981700  Uiso  0.015458
    Si1  Si  1.0000  0.186860  0.000330  0.660200  Uiso  0.007392
    Si1  Si  1.0000  0.041190  0.046110  0.660200  Uiso  0.007392
    Si1  Si  1.0000  0.381070  0.021270  0.660200  Uiso  0.007392
    Si1  Si  1.0000  0.235410  0.067060  0.660200  Uiso  0.007392
    Si1  Si  1.0000  0.089750  0.112840  0.660200  Uiso  0.007392
    Si1  Si  1.0000  0.575290  0.042220  0.660200  Uiso  0.007392
    Si1  Si  1.0000  0.429620  0.088000  0.660200  Uiso  0.007392
    Si1  Si  1.0000  0.283960  0.133790  0.660200  Uiso  0.007392
    Si1  Si  1.0000  0.138300  0.179580  0.660200  Uiso  0.007392
    Si1  Si  1.0000  0.915160  0.017380  0.660200  Uiso  0.007392
    Si1  Si  1.0000  0.769500  0.063160  0.660200  Uiso  0.007392
    Si1  Si  1.0000  0.623840  0.108950  0.660200  Uiso  0.007392
    Si1  Si  1.0000  0.478180  0.154740  0.660200  Uiso  0.007392
    Si1  Si  1.0000  0.332520  0.200520  0.660200  Uiso  0.007392
    Si1  Si  1.0000  0.186860  0.246310  0.660200  Uiso  0.007392
    Si1  Si  1.0000  0.041190  0.292090  0.660200  Uiso  0.007392
    Si1  Si  1.0000  0.963720  0.084110  0.660200  Uiso  0.007392
    Si1  Si  1.0000  0.818060  0.129900  0.660200  Uiso  0.007392
    Si1  Si  1.0000  0.672390  0.175680  0.660200  Uiso  0.007392
    Si1  Si  1.0000  0.526730  0.221470  0.660200  Uiso  0.007392
    Si1  Si  1.0000  0.381070  0.267250  0.660200  Uiso  0.007392
    Si1  Si  1.0000  0.235410  0.313040  0.660200  Uiso  0.007392
    Si1  Si  1.0000  0.089750  0.358830  0.660200  Uiso  0.007392
    Si1  Si  1.0000  0.866610  0.196630  0.660200  Uiso  0.007392
    Si1  Si  1.0000  0.720950  0.242410  0.660200  Uiso  0.007392
    Si1  Si  1.0000  0.575290  0.288200  0.660200  Uiso  0.007392
    Si1  Si  1.0000  0.429620  0.333990  0.660200  Uiso  0.007392
    Si1  Si  1.0000  0.283960  0.379770  0.660200  Uiso  0.007392
    Si1  Si  1.0000  0.138300  0.425560  0.660200  Uiso  0.007392
    Si1  Si  1.0000  0.915160  0.263360  0.660200  Uiso  0.007392
    Si1  Si  1.0000  0.769500  0.309150  0.660200  Uiso  0.007392
    Si1  Si  1.0000  0.623840  0.354930  0.660200  Uiso  0.007392
    Si1  Si  1.0000  0.478180  0.400720  0.660200  Uiso  0.007392
    Si1  Si  1.0000  0.332520  0.446500  0.660200  Uiso  0.007392
    Si1  Si  1.0000  0.186860  0.492290  0.660200  Uiso  0.007392
    Si1  Si  1.0000  0.041190  0.538080  0.660200  Uiso  0.007392
    Si1  Si  1.0000  0.963720  0.330090  0.660200  Uiso  0.007392
    Si1  Si  1.0000  0.818060  0.375880  0.660200  Uiso  0.007392
    Si1  Si  1.0000  0.672390  0.421660  0.660200  Uiso  0.007392
    Si1  Si  1.0000  0.526730  0.467450  0.660200  Uiso  0.007392
    Si1  Si  1.0000  0.381070  0.513240  0.660200  Uiso  0.007392
    Si1  Si  1.0000  0.235410  0.559020  0.660200  Uiso  0.007392
    Si1  Si  1.0000  0.089750  0.604810  0.660200  Uiso  0.007392
    Si1  Si  1.0000  0.866610  0.442610  0.660200  Uiso  0.007392
    Si1  Si  1.0000  0.720950  0.488400  0.660200  Uiso  0.007392
    Si1  Si  1.0000  0.575290  0.534180  0.660200  Uiso  0.007392
    Si1  Si  1.0000  0.429620  0.579970  0.660200  Uiso  0.007392
    Si1  Si  1.0000  0.283960  0.625750  0.660200  Uiso  0.007392
    Si1  Si  1.0000  0.138300  0.671540  0.660200  Uiso  0.007392
    Si1  Si  1.0000  0.915160  0.509340  0.660200  Uiso  0.007392
    Si1  Si  1.0000  0.769500  0.555130  0.660200  Uiso  0.007392
    Si1  Si  1.0000  0.623840  0.600910  0.660200  Uiso  0.007392
    Si1  Si  1.0000  0.478180  0.646700  0.660200  Uiso  0.007392
    Si1  Si  1.0000  0.332520  0.692490  0.660200  Uiso  0.007392
    Si1  Si  1.0000  0.186860  0.738270  0.660200  Uiso  0.007392
    Si1  Si  1.0000  0.041190  0.784060  0.660200  Uiso  0.007392
    Si1  Si  1.0000  0.963720  0.576070  0.660200  Uiso  0.007392
    Si1  Si  1.0000  0.818060  0.621860  0.660200  Uiso  0.007392
    Si1  Si  1.0000  0.672390  0.667650  0.660200  Uiso  0.007392
    Si1  Si  1.0000  0.526730  0.713430  0.660200  Uiso  0.007392
    Si1  Si  1.0000  0.381070  0.759220  0.660200  Uiso  0.007392
    Si1  Si  1.0000  0.235410  0.805000  0.660200  Uiso  0.007392
    Si1  Si  1.0000  0.089750  0.850790  0.660200  Uiso  0.007392
    Si1  Si  1.0000  0.866610  0.688590  0.660200  Uiso  0.007392
    Si1  Si  1.0000  0.720950  0.734380  0.660200  Uiso  0.007392
    Si1  Si  1.0000  0.575290  0.780160  0.660200  Uiso  0.007392
    Si1  Si  1.0000  0.429620  0.825950  0.660200  Uiso  0.007392
    Si1  Si  1.0000  0.283960  0.871740  0.660200  Uiso  0.007392
    Si1  Si  1.0000  0.138300  0.917520  0.660200  Uiso  0.007392
    Si1  Si  1.0000  0.915160  0.755320  0.660200  Uiso  0.007392
    Si1  Si  1.0000  0.769500  0.801110  0.660200  Uiso  0.007392
    Si1  Si  1.0000  0.623840  0.846900  0.660200  Uiso  0.007392
    Si1  Si  1.0000  0.478180  0.892680  0.660200  Uiso  0.007392
    Si1  Si  1.0000  0.332520  0.938470  0.660200  Uiso  0.007392
    Si1  Si  1.0000  0.186860  0.984250  0.660200  Uiso  0.007392
    Si1  Si  1.0000  0.963720  0.822050  0.660200  Uiso  0.007392
    Si1  Si  1.0000  0.818060  0.867840  0.660200  Uiso  0.007392
    Si1  Si  1.0000  0.672390  0.913630  0.660200  Uiso  0.007392
    Si1  Si  1.0000  0.526730  0.959410  0.660200  Uiso  0.007392
    Si1  Si  1.0000  0.866610  0.934570  0.660200  Uiso  0.007392
    Si1  Si  1.0000  0.720950  0.980360  0.660200  Uiso  0.007392
    Si1  Si  1.0000  0.117210  0.025700  0.163300  Uiso  0.006367
    Si1  Si  1.0000  0.457090  0.000860  0.163300  Uiso  0.006367
    Si1  Si  1.0000  0.311430  0.046650  0.163300  Uiso  0.006367
    Si1  Si  1.0000  0.165760  0.092430  0.163300  Uiso  0.006367
    Si1  Si  1.0000  0.020100  0.138220  0.163300  Uiso  0.006367
    Si1  Si  1.0000  0.651300  0.021810  0.163300  Uiso  0.006367
    Si1  Si  1.0000  0.505640  0.067590  0.163300  Uiso  0.006367
    Si1  Si  1.0000  0.359980  0.113380  0.163300  Uiso  0.006367
    Si1  Si  1.0000  0.214320  0.159170  0.163300  Uiso  0.006367
    Si1  Si  1.0000  0.068660  0.204950  0.163300  Uiso  0.006367
    Si1  Si  1.0000  0.845520  0.042750  0.163300  Uiso  0.006367
    Si1  Si  1.0000  0.699860  0.088540  0.163300  Uiso  0.006367
    Si1  Si  1.0000  0.554190  0.134330  0.163300  Uiso  0.006367
    Si1  Si  1.0000  0.408530  0.180110  0.163300  Uiso  0.006367
    Si1  Si  1.0000  0.262870  0.225900  0.163300  Uiso  0.006367
    Si1  Si  1.0000  0.117210  0.271680  0.163300  Uiso  0.006367
    Si1  Si  1.0000  0.894070  0.109490  0.163300  Uiso  0.006367
    Si1  Si  1.0000  0.748410  0.155270  0.163300  Uiso  0.006367
    Si1  Si  1.0000  0.602750  0.201060  0.163300  Uiso  0.006367
    Si1  Si  1.0000  0.457090  0.246840  0.163300  Uiso  0.006367
    Si1  Si  1.0000  0.311430  0.292630  0.163300  Uiso  0.006367
    Si1  Si  1.0000  0.165760  0.338420  0.163300  Uiso  0.006367
    Si1  Si  1.0000  0.020100  0.384200  0.163300  Uiso  0.006367
    Si1  Si  1.0000  0.942630  0.176220  0.163300  Uiso  0.006367
    Si1  Si  1.0000  0.796960  0.222000  0.163300  Uiso  0.006367
    Si1  Si  1.0000  0.651300  0.267790  0.163300  Uiso  0.006367
    Si1  Si  1.0000  0.505640  0.313580  0.163300  Uiso  0.006367
    Si1  Si  1.0000  0.359980  0.359360  0.163300  Uiso  0.006367
    Si1  Si  1.0000  0.214320  0.405150  0.163300  Uiso  0.006367
    Si1  Si  1.0000  0.068660  0.450930  0.163300  Uiso  0.006367
    Si1  Si  1.0000  0.991180  0.242950  0.163300  Uiso  0.006367
    Si1  Si  1.0000  0.845520  0.288740  0.163300  Uiso  0.006367
    Si1  Si  1.0000  0.699860  0.334520  0.163300  Uiso  0.006367
    Si1  Si  1.0000  0.554190  0.380310  0.163300  Uiso  0.006367
    Si1  Si  1.0000  0.408530  0.426090  0.163300  Uiso  0.006367
    Si1  Si  1.0000  0.262870  0.471880  0.163300  Uiso  0.006367
    Si1  Si  1.0000  0.117210  0.517670  0.163300  Uiso  0.006367
    Si1  Si  1.0000  0.894070  0.355470  0.163300  Uiso  0.006367
    Si1  Si  1.0000  0.748410  0.401250  0.163300  Uiso  0.006367
    Si1  Si  1.0000  0.602750  0.447040  0.163300  Uiso  0.006367
    Si1  Si  1.0000  0.457090  0.492830  0.163300  Uiso  0.006367
    Si1  Si  1.0000  0.311430  0.538610  0.163300  Uiso  0.006367
    Si1  Si  1.0000  0.165760  0.584400  0.163300  Uiso  0.006367
    Si1  Si  1.0000  0.020100  0.630180  0.163300  Uiso  0.006367
    Si1  Si  1.0000  0.942630  0.422200  0.163300  Uiso  0.006367
    Si1  Si  1.0000  0.796960  0.467990  0.163300  Uiso  0.006367
    Si1  Si  1.0000  0.651300  0.513770  0.163300  Uiso  0.006367
    Si1  Si  1.0000  0.505640  0.559560  0.163300  Uiso  0.006367
    Si1  Si  1.0000  0.359980  0.605340  0.163300  Uiso  0.006367
    Si1  Si  1.0000  0.214320  0.651130  0.163300  Uiso  0.006367
    Si1  Si  1.0000  0.068660  0.696920  0.163300  Uiso  0.006367
    Si1  Si  1.0000  0.991180  0.488930  0.163300  Uiso  0.006367
    Si1  Si  1.0000  0.845520  0.534720  0.163300  Uiso  0.006367
    Si1  Si  1.0000  0.699860  0.580500  0.163300  Uiso  0.006367
    Si1  Si  1.0000  0.554190  0.626290  0.163300  Uiso  0.006367
    Si1  Si  1.0000  0.408530  0.672080  0.163300  Uiso  0.006367
    Si1  Si  1.0000  0.262870  0.717860  0.163300  Uiso  0.006367
    Si1  Si  1.0000  0.117210  0.763650  0.163300  Uiso  0.006367
    Si1  Si  1.0000  0.894070  0.601450  0.163300  Uiso  0.006367
    Si1  Si  1.0000  0.748410  0.647240  0.163300  Uiso  0.006367
    Si1  Si  1.0000  0.602750  0.693020  0.163300  Uiso  0.006367
    Si1  Si  1.0000  0.457090  0.738810  0.163300  Uiso  0.006367
    Si1  Si  1.0000  0.311430  0.784590  0.163300  Uiso  0.006367
    Si1  Si  1.0000  0.165760  0.830380  0.163300  Uiso  0.006367
    Si1  Si  1.0000  0.020100  0.876170  0.163300  Uiso  0.006367
    Si1  Si  1.0000  0.942630  0.668180  0.163300  Uiso  0.006367
    Si1  Si  1.0000  0.796960  0.713970  0.163300  Uiso  0.006367
    Si1  Si  1.0000  0.651300  0.759750  0.163300  Uiso  0.006367
    Si1  Si  1.0000  0.505640  0.805540  0.163300  Uiso  0.006367
    Si1  Si  1.0000  0.359980  0.851330  0.163300  Uiso  0.006367
    Si1  Si  1.0000  0.214320  0.897110  0.163300  Uiso  0.006367
    Si1  Si  1.0000  0.068660  0.942900  0.163300  Uiso  0.006367
    Si1  Si  1.0000  0.991180  0.734910  0.163300  Uiso  0.006367
    Si1  Si  1.0000  0.845520  0.780700  0.163300  Uiso  0.006367
    Si1  Si  1.0000  0.699860  0.826490  0.163300  Uiso  0.006367
    Si1  Si  1.0000  0.554190  0.872270  0.163300  Uiso  0.006367
    Si1  Si  1.0000  0.408530  0.918060  0.163300  Uiso  0.006367
    Si1  Si  1.0000  0.262870  0.963840  0.163300  Uiso  0.006367
    Si1  Si  1.0000  0.894070  0.847430  0.163300  Uiso  0.006367
    Si1  Si  1.0000  0.748410  0.893220  0.163300  Uiso  0.006367
    Si1  Si  1.0000  0.602750  0.939000  0.163300  Uiso  0.006367
    Si1  Si  1.0000  0.457090  0.984790  0.163300  Uiso  0.006367
    Si1  Si  1.0000  0.942630  0.914160  0.163300  Uiso  0.006367
    Si1  Si  1.0000  0.796960  0.959950  0.163300  Uiso  0.006367
    Si1  Si  1.0000  0.991180  0.980900  0.163300  Uiso  0.006367
    O1  O  1.0000  0.074780  0.044430  0.659600  Uiso  0.007809
    O1  O  1.0000  0.414660  0.019590  0.659600  Uiso  0.007809
    O1  O  1.0000  0.268990  0.065370  0.659600  Uiso  0.007809
    O1  O  1.0000  0.123330  0.111160  0.659600  Uiso  0.007809
    O1  O  1.0000  0.608870  0.040530  0.659600  Uiso  0.007809
    O1  O  1.0000  0.463210  0.086320  0.659600  Uiso  0.007809
    O1  O  1.0000  0.317550  0.132100  0.659600  Uiso  0.007809
    O1  O  1.0000  0.171890  0.177890  0.659600  Uiso  0.007809
    O1  O  1.0000  0.026220  0.223680  0.659600  Uiso  0.007809
    O1  O  1.0000  0.948750  0.015690  0.659600  Uiso  0.007809
    O1  O  1.0000  0.803090  0.061480  0.659600  Uiso  0.007809
    O1  O  1.0000  0.657430  0.107260  0.659600  Uiso  0.007809
    O1  O  1.0000  0.511760  0.153050  0.659600  Uiso  0.007809
    O1  O  1.0000  0.366100  0.198840  0.659600  Uiso  0.007809
    O1  O  1.0000  0.220440  0.244620  0.659600  Uiso  0.007809
    O1  O  1.0000  0.074780  0.290410  0.659600  Uiso  0.007809
    O1  O  1.0000  0.997300  0.082420  0.659600  Uiso  0.007809
    O1  O  1.0000  0.851640  0.128210  0.659600  Uiso  0.007809
    O1  O  1.0000  0.705980  0.174000  0.659600  Uiso  0.007809
    O1  O  1.0000  0.560320  0.219780  0.659600  Uiso  0.007809
    O1  O  1.0000  0.414660  0.265570  0.659600  Uiso  0.007809
    O1  O  1.0000  0.268990  0.311350  0.659600  Uiso  0.007809
    O1  O  1.0000  0.123330  0.357140  0.659600  Uiso  0.007809
    O1  O  1.0000  0.900200  0.194940  0.659600  Uiso  0.007809
    O1  O  1.0000  0.754530  0.240730  0.659600  Uiso  0.007809
    O1  O  1.0000  0.608870  0.286510  0.659600  Uiso  0.007809
    O1  O  1.0000  0.463210  0.332300  0.659600  Uiso  0.007809
    O1  O  1.0000  0.317550  0.378090  0.659600  Uiso  0.007809
    O1  O  1.0000  0.171890  0.423870  0.659600  Uiso  0.007809
    O1  O  1.0000  0.026220  0.469660  0.659600  Uiso  0.007809
    O1  O  1.0000  0.948750  0.261670  0.659600  Uiso  0.007809
    O1  O  1.0000  0.803090  0.307460  0.659600  Uiso  0.007809
    O1  O  1.0000  0.657430  0.353250  0.659600  Uiso  0.007809
    O1  O  1.0000  0.511760  0.399030  0.659600  Uiso  0.007809
    O1  O  1.0000  0.366100  0.444820  0.659600  Uiso  0.007809
    O1  O  1.0000  0.220440  0.490600  0.659600  Uiso  0.007809
    O1  O  1.0000  0.074780  0.536390  0.659600  Uiso  0.007809
    O1  O  1.0000  0.997300  0.328410  0.659600  Uiso  0.007809
    O1  O  1.0000  0.851640  0.374190  0.659600  Uiso  0.007809
    O1  O  1.0000  0.705980  0.419980  0.659600  Uiso  0.007809
    O1  O  1.0000  0.560320  0.465760  0.659600  Uiso  0.007809
    O1  O  1.0000  0.414660  0.511550  0.659600  Uiso  0.007809
    O1  O  1.0000  0.268990  0.557340  0.659600  Uiso  0.007809
    O1  O  1.0000  0.123330  0.603120  0.659600  Uiso  0.007809
    O1  O  1.0000  0.900200  0.440920  0.659600  Uiso  0.007809
    O1  O  1.0000  0.754530  0.486710  0.659600  Uiso  0.007809
    O1  O  1.0000  0.608870  0.532500  0.659600  Uiso  0.007809
    O1  O  1.0000  0.463210  0.578280  0.659600  Uiso  0.007809
    O1  O  1.0000  0.317550  0.624070  0.659600  Uiso  0.007809
    O1  O  1.0000  0.171890  0.669850  0.659600  Uiso  0.007809
    O1  O  1.0000  0.026220  0.715640  0.659600  Uiso  0.007809
    O1  O  1.0000  0.948750  0.507660  0.659600  Uiso  0.007809
    O1  O  1.0000  0.803090  0.553440  0.659600  Uiso  0.007809
    O1  O  1.0000  0.657430  0.599230  0.659600  Uiso  0.007809
    O1  O  1.0000  0.511760  0.645010  0.659600  Uiso  0.007809
    O1  O  1.0000  0.366100  0.690800  0.659600  Uiso  0.007809
    O1  O  1.0000  0.220440  0.736590  0.659600  Uiso  0.007809
    O1  O  1.0000  0.074780  0.782370  0.659600  Uiso  0.007809
    O1  O  1.0000  0.997300  0.574390  0.659600  Uiso  0.007809
    O1  O  1.0000  0.851640  0.620170  0.659600  Uiso  0.007809
    O1  O  1.0000  0.705980  0.665960  0.659600  Uiso  0.007809
    O1  O  1.0000  0.560320  0.711750  0.659600  Uiso  0.007809
    O1  O  1.0000  0.414660  0.757530  0.659600  Uiso  0.007809
    O1  O  1.0000  0.268990  0.803320  0.659600  Uiso  0.007809
    O1  O  1.0000  0.123330  0.849100  0.659600  Uiso  0.007809
    O1  O  1.0000  0.900200  0.686910  0.659600  Uiso  0.007809
    O1  O  1.0000  0.754530  0.732690  0.659600  Uiso  0.007809
    O1  O  1.0000  0.608870  0.778480  0.659600  Uiso  0.007809
    O1  O  1.0000  0.463210  0.824260  0.659600  Uiso  0.007809
    O1  O  1.0000  0.317550  0.870050  0.659600  Uiso  0.007809
    O1  O  1.0000  0.171890  0.915840  0.659600  Uiso  0.007809
    O1  O  1.0000  0.026220  0.961620  0.659600  Uiso  0.007809
    O1  O  1.0000  0.948750  0.753640  0.659600  Uiso  0.007809
    O1  O  1.0000  0.803090  0.799420  0.659600  Uiso  0.007809
    O1  O  1.0000  0.657430  0.845210  0.659600  Uiso  0.007809
    O1  O  1.0000  0.511760  0.891000  0.659600  Uiso  0.007809
    O1  O  1.0000  0.366100  0.936780  0.659600  Uiso  0.007809
    O1  O  1.0000  0.220440  0.982570  0.659600  Uiso  0.007809
    O1  O  1.0000  0.997300  0.820370  0.659600  Uiso  0.007809
    O1  O  1.0000  0.851640  0.866160  0.659600  Uiso  0.007809
    O1  O  1.0000  0.705980  0.911940  0.659600  Uiso  0.007809
    O1  O  1.0000  0.560320  0.957730  0.659600  Uiso  0.007809
    O1  O  1.0000  0.900200  0.932890  0.659600  Uiso  0.007809
    O1  O  1.0000  0.754530  0.978670  0.659600  Uiso  0.007809
    O1  O  1.0000  0.948750  0.999620  0.659600  Uiso  0.007809
    O1  O  1.0000  0.050270  0.039080  0.503000  Uiso  0.010060
    O1  O  1.0000  0.390150  0.014240  0.503000  Uiso  0.010060
    O1  O  1.0000  0.244490  0.060030  0.503000  Uiso  0.010060
    O1  O  1.0000  0.098830  0.105820  0.503000  Uiso  0.010060
    O1  O  1.0000  0.584370  0.035190  0.503000  Uiso  0.010060
    O1  O  1.0000  0.438700  0.080980  0.503000  Uiso  0.010060
    O1  O  1.0000  0.293040  0.126760  0.503000  Uiso  0.010060
    O1  O  1.0000  0.147380  0.172550  0.503000  Uiso  0.010060
    O1  O  1.0000  0.001720  0.218330  0.503000  Uiso  0.010060
    O1  O  1.0000  0.924240  0.010350  0.503000  Uiso  0.010060
    O1  O  1.0000  0.778580  0.056140  0.503000  Uiso  0.010060
    O1  O  1.0000  0.632920  0.101920  0.503000  Uiso  0.010060
    O1  O  1.0000  0.487260  0.147710  0.503000  Uiso  0.010060
    O1  O  1.0000  0.341600  0.193490  0.503000  Uiso  0.010060
    O1  O  1.0000  0.195930  0.239280  0.503000  Uiso  0.010060
    O1  O  1.0000  0.050270  0.285070  0.503000  Uiso  0.010060
    O1  O  1.0000  0.972800  0.077080  0.503000  Uiso  0.010060
    O1  O  1.0000  0.827140  0.122870  0.503000  Uiso  0.010060
    O1  O  1.0000  0.681470  0.168650  0.503000  Uiso  0.010060
    O1  O  1.0000  0.535810  0.214440  0.503000  Uiso  0.010060
    O1  O  1.0000  0.390150  0.260230  0.503000  Uiso  0.010060
    O1  O  1.0000  0.244490  0.306010  0.503000  Uiso  0.010060
    O1  O  1.0000  0.098830  0.351800  0.503000  Uiso  0.010060
    O1  O  1.0000  0.875690  0.189600  0.503000  Uiso  0.010060
    O1  O  1.0000  0.730030  0.235390  0.503000  Uiso  0.010060
    O1  O  1.0000  0.584370  0.281170  0.503000  Uiso  0.010060
    O1  O  1.0000  0.438700  0.326960  0.503000  Uiso  0.010060
    O1  O  1.0000  0.293040  0.372740  0.503000  Uiso  0.010060
    O1  O  1.0000  0.147380  0.418530  0.503000  Uiso  0.010060
    O1  O  1.0000  0.001720  0.464320  0.503000  Uiso  0.010060
    O1  O  1.0000  0.924240  0.256330  0.503000  Uiso  0.010060
    O1  O  1.0000  0.778580  0.302120  0.503000  Uiso  0.010060
    O1  O  1.0000  0.632920  0.347900  0.503000  Uiso  0.010060
    O1  O  1.0000  0.487260  0.393690  0.503000  Uiso  0.010060
    O1  O  1.0000  0.341600  0.439480  0.503000  Uiso  0.010060
    O1  O  1.0000  0.195930  0.485260  0.503000  Uiso  0.010060
    O1  O  1.0000  0.050270  0.531050  0.503000  Uiso  0.010060
    O1  O  1.0000  0.972800  0.323060  0.503000  Uiso  0.010060
    O1  O  1.0000  0.827140  0.368850  0.503000  Uiso  0.010060
    O1  O  1.0000  0.681470  0.414640  0.503000  Uiso  0.010060
    O1  O  1.0000  0.535810  0.460420  0.503000  Uiso  0.010060
    O1  O  1.0000  0.390150  0.506210  0.503000  Uiso  0.010060
    O1  O  1.0000  0.244490  0.551990  0.503000  Uiso  0.010060
    O1  O  1.0000  0.098830  0.597780  0.503000  Uiso  0.010060
    O1  O  1.0000  0.875690  0.435580  0.503000  Uiso  0.010060
    O1  O  1.0000  0.730030  0.481370  0.503000  Uiso  0.010060
    O1  O  1.0000  0.584370  0.527150  0.503000  Uiso  0.010060
    O1  O  1.0000  0.438700  0.572940  0.503000  Uiso  0.010060
    O1  O  1.0000  0.293040  0.618730  0.503000  Uiso  0.010060
    O1  O  1.0000  0.147380  0.664510  0.503000  Uiso  0.010060
    O1  O  1.0000  0.001720  0.710300  0.503000  Uiso  0.010060
    O1  O  1.0000  0.924240  0.502310  0.503000  Uiso  0.010060
    O1  O  1.0000  0.778580  0.548100  0.503000  Uiso  0.010060
    O1  O  1.0000  0.632920  0.593890  0.503000  Uiso  0.010060
    O1  O  1.0000  0.487260  0.639670  0.503000  Uiso  0.010060
    O1  O  1.0000  0.341600  0.685460  0.503000  Uiso  0.010060
    O1  O  1.0000  0.195930  0.731240  0.503000  Uiso  0.010060
    O1  O  1.0000  0.050270  0.777030  0.503000  Uiso  0.010060
    O1  O  1.0000  0.972800  0.569050  0.503000  Uiso  0.010060
    O1  O  1.0000  0.827140  0.614830  0.503000  Uiso  0.010060
    O1  O  1.0000  0.681470  0.660620  0.503000  Uiso  0.010060
    O1  O  1.0000  0.535810  0.706400  0.503000  Uiso  0.010060
    O1  O  1.0000  0.390150  0.752190  0.503000  Uiso  0.010060
    O1  O  1.0000  0.244490  0.797980  0.503000  Uiso  0.010060
    O1  O  1.0000  0.098830  0.843760  0.503000  Uiso  0.010060
    O1  O  1.0000  0.875690  0.681560  0.503000  Uiso  0.010060
    O1  O  1.0000  0.730030  0.727350  0.503000  Uiso  0.010060
    O1  O  1.0000  0.584370  0.773140  0.503000  Uiso  0.010060
    O1  O  1.0000  0.438700  0.818920  0.503000  Uiso  0.010060
    O1  O  1.0000  0.293040  0.864710  0.503000  Uiso  0.010060
    O1  O  1.0000  0.147380  0.910490  0.503000  Uiso  0.010060
    O1  O  1.0000  0.001720  0.956280  0.503000  Uiso  0.010060
    O1  O  1.0000  0.924240  0.748300  0.503000  Uiso  0.010060
    O1  O  1.0000  0.778580  0.794080  0.503000  Uiso  0.010060
    O1  O  1.0000  0.632920  0.839870  0.503000  Uiso  0.010060
    O1  O  1.0000  0.487260  0.885650  0.503000  Uiso  0.010060
    O1  O  1.0000  0.341600  0.931440  0.503000  Uiso  0.010060
    O1  O  1.0000  0.195930  0.977230  0.503000  Uiso  0.010060
    O1  O  1.0000  0.972800  0.815030  0.503000  Uiso  0.010060
    O1  O  1.0000  0.827140  0.860810  0.503000  Uiso  0.010060
    O1  O  1.0000  0.681470  0.906600  0.503000  Uiso  0.010060
    O1  O  1.0000  0.535810  0.952390  0.503000  Uiso  0.010060
    O1  O  1.0000  0.390150  0.998170  0.503000  Uiso  0.010060
    O1  O  1.0000  0.875690  0.927550  0.503000  Uiso  0.010060
    O1  O  1.0000  0.730030  0.973330  0.503000  Uiso  0.010060
    O1  O  1.0000  0.924240  0.994280  0.503000  Uiso  0.010060
    O1  O  1.0000  0.035600  0.023420  0.736700  Uiso  0.011470
    O1  O  1.0000  0.229820  0.044370  0.736700  Uiso  0.011470
    O1  O  1.0000  0.084150  0.090150  0.736700  Uiso  0.011470
    O1  O  1.0000  0.569690  0.019530  0.736700  Uiso  0.011470
    O1  O  1.0000  0.424030  0.065310  0.736700  Uiso  0.011470
    O1  O  1.0000  0.278370  0.111100  0.736700  Uiso  0.011470
    O1  O  1.0000  0.132710  0.156880  0.736700  Uiso  0.011470
    O1  O  1.0000  0.763910  0.040470  0.736700  Uiso  0.011470
    O1  O  1.0000  0.618250  0.086260  0.736700  Uiso  0.011470
    O1  O  1.0000  0.472590  0.132040  0.736700  Uiso  0.011470
    O1  O  1.0000  0.326920  0.177830  0.736700  Uiso  0.011470
    O1  O  1.0000  0.181260  0.223620  0.736700  Uiso  0.011470
    O1  O  1.0000  0.035600  0.269400  0.736700  Uiso  0.011470
    O1  O  1.0000  0.958120  0.061420  0.736700  Uiso  0.011470
    O1  O  1.0000  0.812460  0.107200  0.736700  Uiso  0.011470
    O1  O  1.0000  0.666800  0.152990  0.736700  Uiso  0.011470
    O1  O  1.0000  0.521140  0.198780  0.736700  Uiso  0.011470
    O1  O  1.0000  0.375480  0.244560  0.736700  Uiso  0.011470
    O1  O  1.0000  0.229820  0.290350  0.736700  Uiso  0.011470
    O1  O  1.0000  0.084150  0.336130  0.736700  Uiso  0.011470
    O1  O  1.0000  0.861020  0.173940  0.736700  Uiso  0.011470
    O1  O  1.0000  0.715360  0.219720  0.736700  Uiso  0.011470
    O1  O  1.0000  0.569690  0.265510  0.736700  Uiso  0.011470
    O1  O  1.0000  0.424030  0.311290  0.736700  Uiso  0.011470
    O1  O  1.0000  0.278370  0.357080  0.736700  Uiso  0.011470
    O1  O  1.0000  0.132710  0.402870  0.736700  Uiso  0.011470
    O1  O  1.0000  0.909570  0.240670  0.736700  Uiso  0.011470
    O1  O  1.0000  0.763910  0.286450  0.736700  Uiso  0.011470
    O1  O  1.0000  0.618250  0.332240  0.736700  Uiso  0.011470
    O1  O  1.0000  0.472590  0.378030  0.736700  Uiso  0.011470
    O1  O  1.0000  0.326920  0.423810  0.736700  Uiso  0.011470
    O1  O  1.0000  0.181260  0.469600  0.736700  Uiso  0.011470
    O1  O  1.0000  0.035600  0.515380  0.736700  Uiso  0.011470
    O1  O  1.0000  0.958120  0.307400  0.736700  Uiso  0.011470
    O1  O  1.0000  0.812460  0.353190  0.736700  Uiso  0.011470
    O1  O  1.0000  0.666800  0.398970  0.736700  Uiso  0.011470
    O1  O  1.0000  0.521140  0.444760  0.736700  Uiso  0.011470
    O1  O  1.0000  0.375480  0.490540  0.736700  Uiso  0.011470
    O1  O  1.0000  0.229820  0.536330  0.736700  Uiso  0.011470
    O1  O  1.0000  0.084150  0.582110  0.736700  Uiso  0.011470
    O1  O  1.0000  0.861020  0.419920  0.736700  Uiso  0.011470
    O1  O  1.0000  0.715360  0.465700  0.736700  Uiso  0.011470
    O1  O  1.0000  0.569690  0.511490  0.736700  Uiso  0.011470
    O1  O  1.0000  0.424030  0.557270  0.736700  Uiso  0.011470
    O1  O  1.0000  0.278370  0.603060  0.736700  Uiso  0.011470
    O1  O  1.0000  0.132710  0.648850  0.736700  Uiso  0.011470
    O1  O  1.0000  0.909570  0.486650  0.736700  Uiso  0.011470
    O1  O  1.0000  0.763910  0.532430  0.736700  Uiso  0.011470
    O1  O  1.0000  0.618250  0.578220  0.736700  Uiso  0.011470
    O1  O  1.0000  0.472590  0.624010  0.736700  Uiso  0.011470
    O1  O  1.0000  0.326920  0.669790  0.736700  Uiso  0.011470
    O1  O  1.0000  0.181260  0.715580  0.736700  Uiso  0.011470
    O1  O  1.0000  0.035600  0.761360  0.736700  Uiso  0.011470
    O1  O  1.0000  0.958120  0.553380  0.736700  Uiso  0.011470
    O1  O  1.0000  0.812460  0.599170  0.736700  Uiso  0.011470
    O1  O  1.0000  0.666800  0.644950  0.736700  Uiso  0.011470
    O1  O  1.0000  0.521140  0.690740  0.736700  Uiso  0.011470
    O1  O  1.0000  0.375480  0.736520  0.736700  Uiso  0.011470
    O1  O  1.0000  0.229820  0.782310  0.736700  Uiso  0.011470
    O1  O  1.0000  0.084150  0.828100  0.736700  Uiso  0.011470
    O1  O  1.0000  0.861020  0.665900  0.736700  Uiso  0.011470
    O1  O  1.0000  0.715360  0.711680  0.736700  Uiso  0.011470
    O1  O  1.0000  0.569690  0.757470  0.736700  Uiso  0.011470
    O1  O  1.0000  0.424030  0.803260  0.736700  Uiso  0.011470
    O1  O  1.0000  0.278370  0.849040  0.736700  Uiso  0.011470
    O1  O  1.0000  0.132710  0.894830  0.736700  Uiso  0.011470
    O1  O  1.0000  0.909570  0.732630  0.736700  Uiso  0.011470
    O1  O  1.0000  0.763910  0.778420  0.736700  Uiso  0.011470
    O1  O  1.0000  0.618250  0.824200  0.736700  Uiso  0.011470
    O1  O  1.0000  0.472590  0.869990  0.736700  Uiso  0.011470
    O1  O  1.0000  0.326920  0.915770  0.736700  Uiso  0.011470
    O1  O  1.0000  0.181260  0.961560  0.736700  Uiso  0.011470
    O1  O  1.0000  0.958120  0.799360  0.736700  Uiso  0.011470
    O1  O  1.0000  0.812460  0.845150  0.736700  Uiso  0.011470
    O1  O  1.0000  0.666800  0.890930  0.736700  Uiso  0.011470
    O1  O  1.0000  0.521140  0.936720  0.736700  Uiso  0.011470
    O1  O  1.0000  0.375480  0.982510  0.736700  Uiso  0.011470
    O1  O  1.0000  0.861020  0.911880  0.736700  Uiso  0.011470
    O1  O  1.0000  0.715360  0.957670  0.736700  Uiso  0.011470
    O1  O  1.0000  0.909570  0.978610  0.736700  Uiso  0.011470
    O1  O  1.0000  0.096550  0.040630  0.165800  Uiso  0.007491
    O1  O  1.0000  0.436430  0.015790  0.165800  Uiso  0.007491
    O1  O  1.0000  0.290770  0.061570  0.165800  Uiso  0.007491
    O1  O  1.0000  0.145100  0.107360  0.165800  Uiso  0.007491
    O1  O  1.0000  0.630640  0.036730  0.165800  Uiso  0.007491
    O1  O  1.0000  0.484980  0.082520  0.165800  Uiso  0.007491
    O1  O  1.0000  0.339320  0.128300  0.165800  Uiso  0.007491
    O1  O  1.0000  0.193660  0.174090  0.165800  Uiso  0.007491
    O1  O  1.0000  0.048000  0.219880  0.165800  Uiso  0.007491
    O1  O  1.0000  0.970520  0.011890  0.165800  Uiso  0.007491
    O1  O  1.0000  0.824860  0.057680  0.165800  Uiso  0.007491
    O1  O  1.0000  0.679200  0.103460  0.165800  Uiso  0.007491
    O1  O  1.0000  0.533540  0.149250  0.165800  Uiso  0.007491
    O1  O  1.0000  0.387870  0.195040  0.165800  Uiso  0.007491
    O1  O  1.0000  0.242210  0.240820  0.165800  Uiso  0.007491
    O1  O  1.0000  0.096550  0.286610  0.165800  Uiso  0.007491
    O1  O  1.0000  0.873410  0.124410  0.165800  Uiso  0.007491
    O1  O  1.0000  0.727750  0.170200  0.165800  Uiso  0.007491
    O1  O  1.0000  0.582090  0.215980  0.165800  Uiso  0.007491
    O1  O  1.0000  0.436430  0.261770  0.165800  Uiso  0.007491
    O1  O  1.0000  0.290770  0.307550  0.165800  Uiso  0.007491
    O1  O  1.0000  0.145100  0.353340  0.165800  Uiso  0.007491
    O1  O  1.0000  0.921970  0.191140  0.165800  Uiso  0.007491
    O1  O  1.0000  0.776300  0.236930  0.165800  Uiso  0.007491
    O1  O  1.0000  0.630640  0.282710  0.165800  Uiso  0.007491
    O1  O  1.0000  0.484980  0.328500  0.165800  Uiso  0.007491
    O1  O  1.0000  0.339320  0.374290  0.165800  Uiso  0.007491
    O1  O  1.0000  0.193660  0.420070  0.165800  Uiso  0.007491
    O1  O  1.0000  0.048000  0.465860  0.165800  Uiso  0.007491
    O1  O  1.0000  0.970520  0.257870  0.165800  Uiso  0.007491
    O1  O  1.0000  0.824860  0.303660  0.165800  Uiso  0.007491
    O1  O  1.0000  0.679200  0.349450  0.165800  Uiso  0.007491
    O1  O  1.0000  0.533540  0.395230  0.165800  Uiso  0.007491
    O1  O  1.0000  0.387870  0.441020  0.165800  Uiso  0.007491
    O1  O  1.0000  0.242210  0.486800  0.165800  Uiso  0.007491
    O1  O  1.0000  0.096550  0.532590  0.165800  Uiso  0.007491
    O1  O  1.0000  0.873410  0.370390  0.165800  Uiso  0.007491
    O1  O  1.0000  0.727750  0.416180  0.165800  Uiso  0.007491
    O1  O  1.0000  0.582090  0.461960  0.165800  Uiso  0.007491
    O1  O  1.0000  0.436430  0.507750  0.165800  Uiso  0.007491
    O1  O  1.0000  0.290770  0.553530  0.165800  Uiso  0.007491
    O1  O  1.0000  0.145100  0.599320  0.165800  Uiso  0.007491
    O1  O  1.0000  0.921970  0.437120  0.165800  Uiso  0.007491
    O1  O  1.0000  0.776300  0.482910  0.165800  Uiso  0.007491
    O1  O  1.0000  0.630640  0.528690  0.165800  Uiso  0.007491
    O1  O  1.0000  0.484980  0.574480  0.165800  Uiso  0.007491
    O1  O  1.0000  0.339320  0.620270  0.165800  Uiso  0.007491
    O1  O  1.0000  0.193660  0.666050  0.165800  Uiso  0.007491
    O1  O  1.0000  0.048000  0.711840  0.165800  Uiso  0.007491
    O1  O  1.0000  0.970520  0.503850  0.165800  Uiso  0.007491
    O1  O  1.0000  0.824860  0.549640  0.165800  Uiso  0.007491
    O1  O  1.0000  0.679200  0.595430  0.165800  Uiso  0.007491
    O1  O  1.0000  0.533540  0.641210  0.165800  Uiso  0.007491
    O1  O  1.0000  0.387870  0.687000  0.165800  Uiso  0.007491
    O1  O  1.0000  0.242210  0.732780  0.165800  Uiso  0.007491
    O1  O  1.0000  0.096550  0.778570  0.165800  Uiso  0.007491
    O1  O  1.0000  0.873410  0.616370  0.165800  Uiso  0.007491
    O1  O  1.0000  0.727750  0.662160  0.165800  Uiso  0.007491
    O1  O  1.0000  0.582090  0.707940  0.165800  Uiso  0.007491
    O1  O  1.0000  0.436430  0.753730  0.165800  Uiso  0.007491
    O1  O  1.0000  0.290770  0.799520  0.165800  Uiso  0.007491
    O1  O  1.0000  0.145100  0.845300  0.165800  Uiso  0.007491
    O1  O  1.0000  0.921970  0.683100  0.165800  Uiso  0.007491
    O1  O  1.0000  0.776300  0.728890  0.165800  Uiso  0.007491
    O1  O  1.0000  0.630640  0.774680  0.165800  Uiso  0.007491
    O1  O  1.0000  0.484980  0.820460  0.165800  Uiso  0.007491
    O1  O  1.0000  0.339320  0.866250  0.165800  Uiso  0.007491
    O1  O  1.0000  0.193660  0.912030  0.165800  Uiso  0.007491
    O1  O  1.0000  0.048000  0.957820  0.165800  Uiso  0.007491
    O1  O  1.0000  0.970520  0.749840  0.165800  Uiso  0.007491
    O1  O  1.0000  0.824860  0.795620  0.165800  Uiso  0.007491
    O1  O  1.0000  0.679200  0.841410  0.165800  Uiso  0.007491
    O1  O  1.0000  0.533540  0.887190  0.165800  Uiso  0.007491
    O1  O  1.0000  0.387870  0.932980  0.165800  Uiso  0.007491
    O1  O  1.0000  0.242210  0.978770  0.165800  Uiso  0.007491
    O1  O  1.0000  0.873410  0.862350  0.165800  Uiso  0.007491
    O1  O  1.0000  0.727750  0.908140  0.165800  Uiso  0.007491
    O1  O  1.0000  0.582090  0.953930  0.165800  Uiso  0.007491
    O1  O  1.0000  0.436430  0.999710  0.165800  Uiso  0.007491
    O1  O  1.0000  0.921970  0.929090  0.165800  Uiso  0.007491
    O1  O  1.0000  0.776300  0.974870  0.165800  Uiso  0.007491
    O1  O  1.0000  0.970520  0.995820  0.165800  Uiso  0.007491
    O1  O  1.0000  0.121890  0.012810  0.012300  Uiso  0.014236
    O1  O  1.0000  0.316110  0.033750  0.012300  Uiso  0.014236
    O1  O  1.0000  0.170450  0.079540  0.012300  Uiso  0.014236
    O1  O  1.0000  0.024790  0.125330  0.012300  Uiso  0.014236
    O1  O  1.0000  0.655990  0.008910  0.012300  Uiso  0.014236
    O1  O  1.0000  0.510330  0.054700  0.012300  Uiso  0.014236
    O1  O  1.0000  0.364660  0.100490  0.012300  Uiso  0.014236
    O1  O  1.0000  0.219000  0.146270  0.012300  Uiso  0.014236
    O1  O  1.0000  0.073340  0.192060  0.012300  Uiso  0.014236
    O1  O  1.0000  0.850200  0.029860  0.012300  Uiso  0.014236
    O1  O  1.0000  0.704540  0.075650  0.012300  Uiso  0.014236
    O1  O  1.0000  0.558880  0.121430  0.012300  Uiso  0.014236
    O1  O  1.0000  0.413220  0.167220  0.012300  Uiso  0.014236
    O1  O  1.0000  0.267560  0.213000  0.012300  Uiso  0.014236
    O1  O  1.0000  0.121890  0.258790  0.012300  Uiso  0.014236
    O1  O  1.0000  0.898760  0.096590  0.012300  Uiso  0.014236
    O1  O  1.0000  0.753100  0.142380  0.012300  Uiso  0.014236
    O1  O  1.0000  0.607430  0.188160  0.012300  Uiso  0.014236
    O1  O  1.0000  0.461770  0.233950  0.012300  Uiso  0.014236
    O1  O  1.0000  0.316110  0.279740  0.012300  Uiso  0.014236
    O1  O  1.0000  0.170450  0.325520  0.012300  Uiso  0.014236
    O1  O  1.0000  0.024790  0.371310  0.012300  Uiso  0.014236
    O1  O  1.0000  0.947310  0.163320  0.012300  Uiso  0.014236
    O1  O  1.0000  0.801650  0.209110  0.012300  Uiso  0.014236
    O1  O  1.0000  0.655990  0.254900  0.012300  Uiso  0.014236
    O1  O  1.0000  0.510330  0.300680  0.012300  Uiso  0.014236
    O1  O  1.0000  0.364660  0.346470  0.012300  Uiso  0.014236
    O1  O  1.0000  0.219000  0.392250  0.012300  Uiso  0.014236
    O1  O  1.0000  0.073340  0.438040  0.012300  Uiso  0.014236
    O1  O  1.0000  0.995870  0.230060  0.012300  Uiso  0.014236
    O1  O  1.0000  0.850200  0.275840  0.012300  Uiso  0.014236
    O1  O  1.0000  0.704540  0.321630  0.012300  Uiso  0.014236
    O1  O  1.0000  0.558880  0.367410  0.012300  Uiso  0.014236
    O1  O  1.0000  0.413220  0.413200  0.012300  Uiso  0.014236
    O1  O  1.0000  0.267560  0.458990  0.012300  Uiso  0.014236
    O1  O  1.0000  0.121890  0.504770  0.012300  Uiso  0.014236
    O1  O  1.0000  0.898760  0.342570  0.012300  Uiso  0.014236
    O1  O  1.0000  0.753100  0.388360  0.012300  Uiso  0.014236
    O1  O  1.0000  0.607430  0.434150  0.012300  Uiso  0.014236
    O1  O  1.0000  0.461770  0.479930  0.012300  Uiso  0.014236
    O1  O  1.0000  0.316110  0.525720  0.012300  Uiso  0.014236
    O1  O  1.0000  0.170450  0.571500  0.012300  Uiso  0.014236
    O1  O  1.0000  0.024790  0.617290  0.012300  Uiso  0.014236
    O1  O  1.0000  0.947310  0.409310  0.012300  Uiso  0.014236
    O1  O  1.0000  0.801650  0.455090  0.012300  Uiso  0.014236
    O1  O  1.0000  0.655990  0.500880  0.012300  Uiso  0.014236
    O1  O  1.0000  0.510330  0.546660  0.012300  Uiso  0.014236
    O1  O  1.0000  0.364660  0.592450  0.012300  Uiso  0.014236
    O1  O  1.0000  0.219000  0.638240  0.012300  Uiso  0.014236
    O1  O  1.0000  0.073340  0.684020  0.012300  Uiso  0.014236
    O1  O  1.0000  0.995870  0.476040  0.012300  Uiso  0.014236
    O1  O  1.0000  0.850200  0.521820  0.012300  Uiso  0.014236
    O1  O  1.0000  0.704540  0.567610  0.012300  Uiso  0.014236
    O1  O  1.0000  0.558880  0.613400  0.012300  Uiso  0.014236
    O1  O  1.0000  0.413220  0.659180  0.012300  Uiso  0.014236
    O1  O  1.0000  0.267560  0.704970  0.012300  Uiso  0.014236
    O1  O  1.0000  0.121890  0.750750  0.012300  Uiso  0.014236
    O1  O  1.0000  0.898760  0.588560  0.012300  Uiso  0.014236
    O1  O  1.0000  0.753100  0.634340  0.012300  Uiso  0.014236
    O1  O  1.0000  0.607430  0.680130  0.012300  Uiso  0.014236
    O1  O  1.0000  0.461770  0.725910  0.012300  Uiso  0.014236
    O1  O  1.0000  0.316110  0.771700  0.012300  Uiso  0.014236
    O1  O  1.0000  0.170450  0.817490  0.012300  Uiso  0.014236
    O1  O  1.0000  0.024790  0.863270  0.012300  Uiso  0.014236
    O1  O  1.0000  0.947310  0.655290  0.012300  Uiso  0.014236
    O1  O  1.0000  0.801650  0.701070  0.012300  Uiso  0.014236
    O1  O  1.0000  0.655990  0.746860  0.012300  Uiso  0.014236
    O1  O  1.0000  0.510330  0.792650  0.012300  Uiso  0.014236
    O1  O  1.0000  0.364660  0.838430  0.012300  Uiso  0.014236
    O1  O  1.0000  0.219000  0.884220  0.012300  Uiso  0.014236
    O1  O  1.0000  0.073340  0.930000  0.012300  Uiso  0.014236
    O1  O  1.0000  0.995870  0.722020  0.012300  Uiso  0.014236
    O1  O  1.0000  0.850200  0.767810  0.012300  Uiso  0.014236
    O1  O  1.0000  0.704540  0.813590  0.012300  Uiso  0.014236
    O1  O  1.0000  0.558880  0.859380  0.012300  Uiso  0.014236
    O1  O  1.0000  0.413220  0.905160  0.012300  Uiso  0.014236
    O1  O  1.0000  0.267560  0.950950  0.012300  Uiso  0.014236
    O1  O  1.0000  0.121890  0.996730  0.012300  Uiso  0.014236
    O1  O  1.0000  0.898760  0.834540  0.012300  Uiso  0.014236
    O1  O  1.0000  0.753100  0.880320  0.012300  Uiso  0.014236
    O1  O  1.0000  0.607430  0.926110  0.012300  Uiso  0.014236
    O1  O  1.0000  0.461770  0.971890  0.012300  Uiso  0.014236
    O1  O  1.0000  0.947310  0.901270  0.012300  Uiso  0.014236
    O1  O  1.0000  0.801650  0.947050  0.012300  Uiso  0.014236
    O1  O  1.0000  0.655990  0.992840  0.012300  Uiso  0.014236
    O1  O  1.0000  0.995870  0.968000  0.012300  Uiso  0.014236
    O1  O  1.0000  0.113550  0.007170  0.291300  Uiso  0.011494
    O1  O  1.0000  0.307760  0.028110  0.291300  Uiso  0.011494
    O1  O  1.0000  0.162100  0.073900  0.291300  Uiso  0.011494
    O1  O  1.0000  0.016440  0.119680  0.291300  Uiso  0.011494
    O1  O  1.0000  0.647640  0.003270  0.291300  Uiso  0.011494
    O1  O  1.0000  0.501980  0.049060  0.291300  Uiso  0.011494
    O1  O  1.0000  0.356320  0.094840  0.291300  Uiso  0.011494
    O1  O  1.0000  0.210660  0.140630  0.291300  Uiso  0.011494
    O1  O  1.0000  0.064990  0.186420  0.291300  Uiso  0.011494
    O1  O  1.0000  0.841860  0.024220  0.291300  Uiso  0.011494
    O1  O  1.0000  0.696200  0.070000  0.291300  Uiso  0.011494
    O1  O  1.0000  0.550530  0.115790  0.291300  Uiso  0.011494
    O1  O  1.0000  0.404870  0.161580  0.291300  Uiso  0.011494
    O1  O  1.0000  0.259210  0.207360  0.291300  Uiso  0.011494
    O1  O  1.0000  0.113550  0.253150  0.291300  Uiso  0.011494
    O1  O  1.0000  0.890410  0.090950  0.291300  Uiso  0.011494
    O1  O  1.0000  0.744750  0.136740  0.291300  Uiso  0.011494
    O1  O  1.0000  0.599090  0.182520  0.291300  Uiso  0.011494
    O1  O  1.0000  0.453430  0.228310  0.291300  Uiso  0.011494
    O1  O  1.0000  0.307760  0.274090  0.291300  Uiso  0.011494
    O1  O  1.0000  0.162100  0.319880  0.291300  Uiso  0.011494
    O1  O  1.0000  0.016440  0.365670  0.291300  Uiso  0.011494
    O1  O  1.0000  0.938970  0.157680  0.291300  Uiso  0.011494
    O1  O  1.0000  0.793300  0.203470  0.291300  Uiso  0.011494
    O1  O  1.0000  0.647640  0.249250  0.291300  Uiso  0.011494
    O1  O  1.0000  0.501980  0.295040  0.291300  Uiso  0.011494
    O1  O  1.0000  0.356320  0.340830  0.291300  Uiso  0.011494
    O1  O  1.0000  0.210660  0.386610  0.291300  Uiso  0.011494
    O1  O  1.0000  0.064990  0.432400  0.291300  Uiso  0.011494
    O1  O  1.0000  0.987520  0.224410  0.291300  Uiso  0.011494
    O1  O  1.0000  0.841860  0.270200  0.291300  Uiso  0.011494
    O1  O  1.0000  0.696200  0.315990  0.291300  Uiso  0.011494
    O1  O  1.0000  0.550530  0.361770  0.291300  Uiso  0.011494
    O1  O  1.0000  0.404870  0.407560  0.291300  Uiso  0.011494
    O1  O  1.0000  0.259210  0.453340  0.291300  Uiso  0.011494
    O1  O  1.0000  0.113550  0.499130  0.291300  Uiso  0.011494
    O1  O  1.0000  0.890410  0.336930  0.291300  Uiso  0.011494
    O1  O  1.0000  0.744750  0.382720  0.291300  Uiso  0.011494
    O1  O  1.0000  0.599090  0.428500  0.291300  Uiso  0.011494
    O1  O  1.0000  0.453430  0.474290  0.291300  Uiso  0.011494
    O1  O  1.0000  0.307760  0.520080  0.291300  Uiso  0.011494
    O1  O  1.0000  0.162100  0.565860  0.291300  Uiso  0.011494
    O1  O  1.0000  0.016440  0.611650  0.291300  Uiso  0.011494
    O1  O  1.0000  0.938970  0.403660  0.291300  Uiso  0.011494
    O1  O  1.0000  0.793300  0.449450  0.291300  Uiso  0.011494
    O1  O  1.0000  0.647640  0.495240  0.291300  Uiso  0.011494
    O1  O  1.0000  0.501980  0.541020  0.291300  Uiso  0.011494
    O1  O  1.0000  0.356320  0.586810  0.291300  Uiso  0.011494
    O1  O  1.0000  0.210660  0.632590  0.291300  Uiso  0.011494
    O1  O  1.0000  0.064990  0.678380  0.291300  Uiso  0.011494
    O1  O  1.0000  0.987520  0.470400  0.291300  Uiso  0.011494
    O1  O  1.0000  0.841860  0.516180  0.291300  Uiso  0.011494
    O1  O  1.0000  0.696200  0.561970  0.291300  Uiso  0.011494
    O1  O  1.0000  0.550530  0.607750  0.291300  Uiso  0.011494
    O1  O  1.0000  0.404870  0.653540  0.291300  Uiso  0.011494
    O1  O  1.0000  0.259210  0.699330  0.291300  Uiso  0.011494
    O1  O  1.0000  0.113550  0.745110  0.291300  Uiso  0.011494
    O1  O  1.0000  0.890410  0.582910  0.291300  Uiso  0.011494
    O1  O  1.0000  0.744750  0.628700  0.291300  Uiso  0.011494
    O1  O  1.0000  0.599090  0.674490  0.291300  Uiso  0.011494
    O1  O  1.0000  0.453430  0.720270  0.291300  Uiso  0.011494
    O1  O  1.0000  0.307760  0.766060  0.291300  Uiso  0.011494
    O1  O  1.0000  0.162100  0.811840  0.291300  Uiso  0.011494
    O1  O  1.0000  0.016440  0.857630  0.291300  Uiso  0.011494
    O1  O  1.0000  0.938970  0.649650  0.291300  Uiso  0.011494
    O1  O  1.0000  0.793300  0.695430  0.291300  Uiso  0.011494
    O1  O  1.0000  0.647640  0.741220  0.291300  Uiso  0.011494
    O1  O  1.0000  0.501980  0.787000  0.291300  Uiso  0.011494
    O1  O  1.0000  0.356320  0.832790  0.291300  Uiso  0.011494
    O1  O  1.0000  0.210660  0.878580  0.291300  Uiso  0.011494
    O1  O  1.0000  0.064990  0.924360  0.291300  Uiso  0.011494
    O1  O  1.0000  0.987520  0.716380  0.291300  Uiso  0.011494
    O1  O  1.0000  0.841860  0.762160  0.291300  Uiso  0.011494
    O1  O  1.0000  0.696200  0.807950  0.291300  Uiso  0.011494
    O1  O  1.0000  0.550530  0.853740  0.291300  Uiso  0.011494
    O1  O  1.0000  0.404870  0.899520  0.291300  Uiso  0.011494
    O1  O  1.0000  0.259210  0.945310  0.291300  Uiso  0.011494
    O1  O  1.0000  0.113550  0.991090  0.291300  Uiso  0.011494
    O1  O  1.0000  0.890410  0.828900  0.291300  Uiso  0.011494
    O1  O  1.0000  0.744750  0.874680  0.291300  Uiso  0.011494
    O1  O  1.0000  0.599090  0.920470  0.291300  Uiso  0.011494
    O1  O  1.0000  0.453430  0.966250  0.291300  Uiso  0.011494
    O1  O  1.0000  0.938970  0.895630  0.291300  Uiso  0.011494
    O1  O  1.0000  0.793300  0.941410  0.291300  Uiso  0.011494
    O1  O  1.0000  0.647640  0.987200  0.291300  Uiso  0.011494
    O1  O  1.0000  0.987520  0.962360  0.291300  Uiso  0.011494
    Mg1  Mg  0.7200  0.049510  0.006350  0.154800  Uiso  0.007781
    Mg1  Mg  0.7200  0.243720  0.027290  0.154800  Uiso  0.007781
    Mg1  Mg  0.7200  0.098060  0.073080  0.154800  Uiso  0.007781
    Mg1  Mg  0.7200  0.583600  0.002450  0.154800  Uiso  0.007781
    Mg1  Mg  0.7200  0.437940  0.048240  0.154800  Uiso  0.007781
    Mg1  Mg  0.7200  0.292280  0.094030  0.154800  Uiso  0.007781
    Mg1  Mg  0.7200  0.146610  0.139810  0.154800  Uiso  0.007781
    Mg1  Mg  0.7200  0.000950  0.185600  0.154800  Uiso  0.007781
    Mg1  Mg  0.7200  0.777810  0.023400  0.154800  Uiso  0.007781
    Mg1  Mg  0.7200  0.632150  0.069190  0.154800  Uiso  0.007781
    Mg1  Mg  0.7200  0.486490  0.114970  0.154800  Uiso  0.007781
    Mg1  Mg  0.7200  0.340830  0.160760  0.154800  Uiso  0.007781
    Mg1  Mg  0.7200  0.195170  0.206540  0.154800  Uiso  0.007781
    Mg1  Mg  0.7200  0.049510  0.252330  0.154800  Uiso  0.007781
    Mg1  Mg  0.7200  0.972030  0.044350  0.154800  Uiso  0.007781
    Mg1  Mg  0.7200  0.826370  0.090130  0.154800  Uiso  0.007781
    Mg1  Mg  0.7200  0.680710  0.135920  0.154800  Uiso  0.007781
    Mg1  Mg  0.7200  0.535050  0.181700  0.154800  Uiso  0.007781
    Mg1  Mg  0.7200  0.389380  0.227490  0.154800  Uiso  0.007781
    Mg1  Mg  0.7200  0.243720  0.273280  0.154800  Uiso  0.007781
    Mg1  Mg  0.7200  0.098060  0.319060  0.154800  Uiso  0.007781
    Mg1  Mg  0.7200  0.874920  0.156860  0.154800  Uiso  0.007781
    Mg1  Mg  0.7200  0.729260  0.202650  0.154800  Uiso  0.007781
    Mg1  Mg  0.7200  0.583600  0.248440  0.154800  Uiso  0.007781
    Mg1  Mg  0.7200  0.437940  0.294220  0.154800  Uiso  0.007781
    Mg1  Mg  0.7200  0.292280  0.340010  0.154800  Uiso  0.007781
    Mg1  Mg  0.7200  0.146610  0.385790  0.154800  Uiso  0.007781
    Mg1  Mg  0.7200  0.000950  0.431580  0.154800  Uiso  0.007781
    Mg1  Mg  0.7200  0.923480  0.223600  0.154800  Uiso  0.007781
    Mg1  Mg  0.7200  0.777810  0.269380  0.154800  Uiso  0.007781
    Mg1  Mg  0.7200  0.632150  0.315170  0.154800  Uiso  0.007781
    Mg1  Mg  0.7200  0.486490  0.360950  0.154800  Uiso  0.007781
    Mg1  Mg  0.7200  0.340830  0.406740  0.154800  Uiso  0.007781
    Mg1  Mg  0.7200  0.195170  0.452530  0.154800  Uiso  0.007781
    Mg1  Mg  0.7200  0.049510  0.498310  0.154800  Uiso  0.007781
    Mg1  Mg  0.7200  0.972030  0.290330  0.154800  Uiso  0.007781
    Mg1  Mg  0.7200  0.826370  0.336110  0.154800  Uiso  0.007781
    Mg1  Mg  0.7200  0.680710  0.381900  0.154800  Uiso  0.007781
    Mg1  Mg  0.7200  0.535050  0.427690  0.154800  Uiso  0.007781
    Mg1  Mg  0.7200  0.389380  0.473470  0.154800  Uiso  0.007781
    Mg1  Mg  0.7200  0.243720  0.519260  0.154800  Uiso  0.007781
    Mg1  Mg  0.7200  0.098060  0.565040  0.154800  Uiso  0.007781
    Mg1  Mg  0.7200  0.874920  0.402850  0.154800  Uiso  0.007781
    Mg1  Mg  0.7200  0.729260  0.448630  0.154800  Uiso  0.007781
    Mg1  Mg  0.7200  0.583600  0.494420  0.154800  Uiso  0.007781
    Mg1  Mg  0.7200  0.437940  0.540200  0.154800  Uiso  0.007781
    Mg1  Mg  0.7200  0.292280  0.585990  0.154800  Uiso  0.007781
    Mg1  Mg  0.7200  0.146610  0.631770  0.154800  Uiso  0.007781
    Mg1  Mg  0.7200  0.000950  0.677560  0.154800  Uiso  0.007781
    Mg1  Mg  0.7200  0.923480  0.469580  0.154800  Uiso  0.007781
    Mg1  Mg  0.7200  0.777810  0.515360  0.154800  Uiso  0.007781
    Mg1  Mg  0.7200  0.632150  0.561150  0.154800  Uiso  0.007781
    Mg1  Mg  0.7200  0.486490  0.606930  0.154800  Uiso  0.007781
    Mg1  Mg  0.7200  0.340830  0.652720  0.154800  Uiso  0.007781
    Mg1  Mg  0.7200  0.195170  0.698510  0.154800  Uiso  0.007781
    Mg1  Mg  0.7200  0.049510  0.744290  0.154800  Uiso  0.007781
    Mg1  Mg  0.7200  0.972030  0.536310  0.154800  Uiso  0.007781
    Mg1  Mg  0.7200  0.826370  0.582090  0.154800  Uiso  0.007781
    Mg1  Mg  0.7200  0.680710  0.627880  0.154800  Uiso  0.007781
    Mg1  Mg  0.7200  0.535050  0.673670  0.154800  Uiso  0.007781
    Mg1  Mg  0.7200  0.389380  0.719450  0.154800  Uiso  0.007781
    Mg1  Mg  0.7200  0.243720  0.765240  0.154800  Uiso  0.007781
    Mg1  Mg  0.7200  0.098060  0.811020  0.154800  Uiso  0.007781
    Mg1  Mg  0.7200  0.874920  0.648830  0.154800  Uiso  0.007781
    Mg1  Mg  0.7200  0.729260  0.694610  0.154800  Uiso  0.007781
    Mg1  Mg  0.7200  0.583600  0.740400  0.154800  Uiso  0.007781
    Mg1  Mg  0.7200  0.437940  0.786180  0.154800  Uiso  0.007781
    Mg1  Mg  0.7200  0.292280  0.831970  0.154800  Uiso  0.007781
    Mg1  Mg  0.7200  0.146610  0.877760  0.154800  Uiso  0.007781
    Mg1  Mg  0.7200  0.000950  0.923540  0.154800  Uiso  0.007781
    Mg1  Mg  0.7200  0.923480  0.715560  0.154800  Uiso  0.007781
    Mg1  Mg  0.7200  0.777810  0.761340  0.154800  Uiso  0.007781
    Mg1  Mg  0.7200  0.632150  0.807130  0.154800  Uiso  0.007781
    Mg1  Mg  0.7200  0.486490  0.852920  0.154800  Uiso  0.007781
    Mg1  Mg  0.7200  0.340830  0.898700  0.154800  Uiso  0.007781
    Mg1  Mg  0.7200  0.195170  0.944490  0.154800  Uiso  0.007781
    Mg1  Mg  0.7200  0.049510  0.990270  0.154800  Uiso  0.007781
    Mg1  Mg  0.7200  0.972030  0.782290  0.154800  Uiso  0.007781
    Mg1  Mg  0.7200  0.826370  0.828080  0.154800  Uiso  0.007781
    Mg1  Mg  0.7200  0.680710  0.873860  0.154800  Uiso  0.007781
    Mg1  Mg  0.7200  0.535050  0.919650  0.154800  Uiso  0.007781
    Mg1  Mg  0.7200  0.389380  0.965430  0.154800  Uiso  0.007781
    Mg1  Mg  0.7200  0.874920  0.894810  0.154800  Uiso  0.007781
    Mg1  Mg  0.7200  0.729260  0.940590  0.154800  Uiso  0.007781
    Mg1  Mg  0.7200  0.583600  0.986380  0.154800  Uiso  0.007781
    Mg1  Mg  0.7200  0.923480  0.961540  0.154800  Uiso  0.007781
    Fe1  Fe  0.2800  0.049510  0.006350  0.154800  Uiso  0.007781
    Fe1  Fe  0.2800  0.243720  0.027290  0.154800  Uiso  0.007781
    Fe1  Fe  0.2800  0.098060  0.073080  0.154800  Uiso  0.007781
    Fe1  Fe  0.2800  0.583600  0.002450  0.154800  Uiso  0.007781
    Fe1  Fe  0.2800  0.437940  0.048240  0.154800  Uiso  0.007781
    Fe1  Fe  0.2800  0.292280  0.094030  0.154800  Uiso  0.007781
    Fe1  Fe  0.2800  0.146610  0.139810  0.154800  Uiso  0.007781
    Fe1  Fe  0.2800  0.000950  0.185600  0.154800  Uiso  0.007781
    Fe1  Fe  0.2800  0.777810  0.023400  0.154800  Uiso  0.007781
    Fe1  Fe  0.2800  0.632150  0.069190  0.154800  Uiso  0.007781
    Fe1  Fe  0.2800  0.486490  0.114970  0.154800  Uiso  0.007781
    Fe1  Fe  0.2800  0.340830  0.160760  0.154800  Uiso  0.007781
    Fe1  Fe  0.2800  0.195170  0.206540  0.154800  Uiso  0.007781
    Fe1  Fe  0.2800  0.049510  0.252330  0.154800  Uiso  0.007781
    Fe1  Fe  0.2800  0.972030  0.044350  0.154800  Uiso  0.007781
    Fe1  Fe  0.2800  0.826370  0.090130  0.154800  Uiso  0.007781
    Fe1  Fe  0.2800  0.680710  0.135920  0.154800  Uiso  0.007781
    Fe1  Fe  0.2800  0.535050  0.181700  0.154800  Uiso  0.007781
    Fe1  Fe  0.2800  0.389380  0.227490  0.154800  Uiso  0.007781
    Fe1  Fe  0.2800  0.243720  0.273280  0.154800  Uiso  0.007781
    Fe1  Fe  0.2800  0.098060  0.319060  0.154800  Uiso  0.007781
    Fe1  Fe  0.2800  0.874920  0.156860  0.154800  Uiso  0.007781
    Fe1  Fe  0.2800  0.729260  0.202650  0.154800  Uiso  0.007781
    Fe1  Fe  0.2800  0.583600  0.248440  0.154800  Uiso  0.007781
    Fe1  Fe  0.2800  0.437940  0.294220  0.154800  Uiso  0.007781
    Fe1  Fe  0.2800  0.292280  0.340010  0.154800  Uiso  0.007781
    Fe1  Fe  0.2800  0.146610  0.385790  0.154800  Uiso  0.007781
    Fe1  Fe  0.2800  0.000950  0.431580  0.154800  Uiso  0.007781
    Fe1  Fe  0.2800  0.923480  0.223600  0.154800  Uiso  0.007781
    Fe1  Fe  0.2800  0.777810  0.269380  0.154800  Uiso  0.007781
    Fe1  Fe  0.2800  0.632150  0.315170  0.154800  Uiso  0.007781
    Fe1  Fe  0.2800  0.486490  0.360950  0.154800  Uiso  0.007781
    Fe1  Fe  0.2800  0.340830  0.406740  0.154800  Uiso  0.007781
    Fe1  Fe  0.2800  0.195170  0.452530  0.154800  Uiso  0.007781
    Fe1  Fe  0.2800  0.049510  0.498310  0.154800  Uiso  0.007781
    Fe1  Fe  0.2800  0.972030  0.290330  0.154800  Uiso  0.007781
    Fe1  Fe  0.2800  0.826370  0.336110  0.154800  Uiso  0.007781
    Fe1  Fe  0.2800  0.680710  0.381900  0.154800  Uiso  0.007781
    Fe1  Fe  0.2800  0.535050  0.427690  0.154800  Uiso  0.007781
    Fe1  Fe  0.2800  0.389380  0.473470  0.154800  Uiso  0.007781
    Fe1  Fe  0.2800  0.243720  0.519260  0.154800  Uiso  0.007781
    Fe1  Fe  0.2800  0.098060  0.565040  0.154800  Uiso  0.007781
    Fe1  Fe  0.2800  0.874920  0.402850  0.154800  Uiso  0.007781
    Fe1  Fe  0.2800  0.729260  0.448630  0.154800  Uiso  0.007781
    Fe1  Fe  0.2800  0.583600  0.494420  0.154800  Uiso  0.007781
    Fe1  Fe  0.2800  0.437940  0.540200  0.154800  Uiso  0.007781
    Fe1  Fe  0.2800  0.292280  0.585990  0.154800  Uiso  0.007781
    Fe1  Fe  0.2800  0.146610  0.631770  0.154800  Uiso  0.007781
    Fe1  Fe  0.2800  0.000950  0.677560  0.154800  Uiso  0.007781
    Fe1  Fe  0.2800  0.923480  0.469580  0.154800  Uiso  0.007781
    Fe1  Fe  0.2800  0.777810  0.515360  0.154800  Uiso  0.007781
    Fe1  Fe  0.2800  0.632150  0.561150  0.154800  Uiso  0.007781
    Fe1  Fe  0.2800  0.486490  0.606930  0.154800  Uiso  0.007781
    Fe1  Fe  0.2800  0.340830  0.652720  0.154800  Uiso  0.007781
    Fe1  Fe  0.2800  0.195170  0.698510  0.154800  Uiso  0.007781
    Fe1  Fe  0.2800  0.049510  0.744290  0.154800  Uiso  0.007781
    Fe1  Fe  0.2800  0.972030  0.536310  0.154800  Uiso  0.007781
    Fe1  Fe  0.2800  0.826370  0.582090  0.154800  Uiso  0.007781
    Fe1  Fe  0.2800  0.680710  0.627880  0.154800  Uiso  0.007781
    Fe1  Fe  0.2800  0.535050  0.673670  0.154800  Uiso  0.007781
    Fe1  Fe  0.2800  0.389380  0.719450  0.154800  Uiso  0.007781
    Fe1  Fe  0.2800  0.243720  0.765240  0.154800  Uiso  0.007781
    Fe1  Fe  0.2800  0.098060  0.811020  0.154800  Uiso  0.007781
    Fe1  Fe  0.2800  0.874920  0.648830  0.154800  Uiso  0.007781
    Fe1  Fe  0.2800  0.729260  0.694610  0.154800  Uiso  0.007781
    Fe1  Fe  0.2800  0.583600  0.740400  0.154800  Uiso  0.007781
    Fe1  Fe  0.2800  0.437940  0.786180  0.154800  Uiso  0.007781
    Fe1  Fe  0.2800  0.292280  0.831970  0.154800  Uiso  0.007781
    Fe1  Fe  0.2800  0.146610  0.877760  0.154800  Uiso  0.007781
    Fe1  Fe  0.2800  0.000950  0.923540  0.154800  Uiso  0.007781
    Fe1  Fe  0.2800  0.923480  0.715560  0.154800  Uiso  0.007781
    Fe1  Fe  0.2800  0.777810  0.761340  0.154800  Uiso  0.007781
    Fe1  Fe  0.2800  0.632150  0.807130  0.154800  Uiso  0.007781
    Fe1  Fe  0.2800  0.486490  0.852920  0.154800  Uiso  0.007781
    Fe1  Fe  0.2800  0.340830  0.898700  0.154800  Uiso  0.007781
    Fe1  Fe  0.2800  0.195170  0.944490  0.154800  Uiso  0.007781
    Fe1  Fe  0.2800  0.049510  0.990270  0.154800  Uiso  0.007781
    Fe1  Fe  0.2800  0.972030  0.782290  0.154800  Uiso  0.007781
    Fe1  Fe  0.2800  0.826370  0.828080  0.154800  Uiso  0.007781
    Fe1  Fe  0.2800  0.680710  0.873860  0.154800  Uiso  0.007781
    Fe1  Fe  0.2800  0.535050  0.919650  0.154800  Uiso  0.007781
    Fe1  Fe  0.2800  0.389380  0.965430  0.154800  Uiso  0.007781
    Fe1  Fe  0.2800  0.874920  0.894810  0.154800  Uiso  0.007781
    Fe1  Fe  0.2800  0.729260  0.940590  0.154800  Uiso  0.007781
    Fe1  Fe  0.2800  0.583600  0.986380  0.154800  Uiso  0.007781
    Fe1  Fe  0.2800  0.923480  0.961540  0.154800  Uiso  0.007781
    Fe1  Fe  0.7600  0.050420  0.006220  0.518300  Uiso  0.015458
    Fe1  Fe  0.7600  0.244630  0.027170  0.518300  Uiso  0.015458
    Fe1  Fe  0.7600  0.098970  0.072960  0.518300  Uiso  0.015458
    Fe1  Fe  0.7600  0.584510  0.002330  0.518300  Uiso  0.015458
    Fe1  Fe  0.7600  0.438850  0.048120  0.518300  Uiso  0.015458
    Fe1  Fe  0.7600  0.293190  0.093900  0.518300  Uiso  0.015458
    Fe1  Fe  0.7600  0.147530  0.139690  0.518300  Uiso  0.015458
    Fe1  Fe  0.7600  0.001860  0.185470  0.518300  Uiso  0.015458
    Fe1  Fe  0.7600  0.778730  0.023280  0.518300  Uiso  0.015458
    Fe1  Fe  0.7600  0.633070  0.069060  0.518300  Uiso  0.015458
    Fe1  Fe  0.7600  0.487400  0.114850  0.518300  Uiso  0.015458
    Fe1  Fe  0.7600  0.341740  0.160630  0.518300  Uiso  0.015458
    Fe1  Fe  0.7600  0.196080  0.206420  0.518300  Uiso  0.015458
    Fe1  Fe  0.7600  0.050420  0.252210  0.518300  Uiso  0.015458
    Fe1  Fe  0.7600  0.972940  0.044220  0.518300  Uiso  0.015458
    Fe1  Fe  0.7600  0.827280  0.090010  0.518300  Uiso  0.015458
    Fe1  Fe  0.7600  0.681620  0.135790  0.518300  Uiso  0.015458
    Fe1  Fe  0.7600  0.535960  0.181580  0.518300  Uiso  0.015458
    Fe1  Fe  0.7600  0.390300  0.227370  0.518300  Uiso  0.015458
    Fe1  Fe  0.7600  0.244630  0.273150  0.518300  Uiso  0.015458
    Fe1  Fe  0.7600  0.098970  0.318940  0.518300  Uiso  0.015458
    Fe1  Fe  0.7600  0.875840  0.156740  0.518300  Uiso  0.015458
    Fe1  Fe  0.7600  0.730170  0.202530  0.518300  Uiso  0.015458
    Fe1  Fe  0.7600  0.584510  0.248310  0.518300  Uiso  0.015458
    Fe1  Fe  0.7600  0.438850  0.294100  0.518300  Uiso  0.015458
    Fe1  Fe  0.7600  0.293190  0.339880  0.518300  Uiso  0.015458
    Fe1  Fe  0.7600  0.147530  0.385670  0.518300  Uiso  0.015458
    Fe1  Fe  0.7600  0.001860  0.431460  0.518300  Uiso  0.015458
    Fe1  Fe  0.7600  0.924390  0.223470  0.518300  Uiso  0.015458
    Fe1  Fe  0.7600  0.778730  0.269260  0.518300  Uiso  0.015458
    Fe1  Fe  0.7600  0.633070  0.315040  0.518300  Uiso  0.015458
    Fe1  Fe  0.7600  0.487400  0.360830  0.518300  Uiso  0.015458
    Fe1  Fe  0.7600  0.341740  0.406620  0.518300  Uiso  0.015458
    Fe1  Fe  0.7600  0.196080  0.452400  0.518300  Uiso  0.015458
    Fe1  Fe  0.7600  0.050420  0.498190  0.518300  Uiso  0.015458
    Fe1  Fe  0.7600  0.972940  0.290200  0.518300  Uiso  0.015458
    Fe1  Fe  0.7600  0.827280  0.335990  0.518300  Uiso  0.015458
    Fe1  Fe  0.7600  0.681620  0.381780  0.518300  Uiso  0.015458
    Fe1  Fe  0.7600  0.535960  0.427560  0.518300  Uiso  0.015458
    Fe1  Fe  0.7600  0.390300  0.473350  0.518300  Uiso  0.015458
    Fe1  Fe  0.7600  0.244630  0.519130  0.518300  Uiso  0.015458
    Fe1  Fe  0.7600  0.098970  0.564920  0.518300  Uiso  0.015458
    Fe1  Fe  0.7600  0.875840  0.402720  0.518300  Uiso  0.015458
    Fe1  Fe  0.7600  0.730170  0.448510  0.518300  Uiso  0.015458
    Fe1  Fe  0.7600  0.584510  0.494290  0.518300  Uiso  0.015458
    Fe1  Fe  0.7600  0.438850  0.540080  0.518300  Uiso  0.015458
    Fe1  Fe  0.7600  0.293190  0.585870  0.518300  Uiso  0.015458
    Fe1  Fe  0.7600  0.147530  0.631650  0.518300  Uiso  0.015458
    Fe1  Fe  0.7600  0.001860  0.677440  0.518300  Uiso  0.015458
    Fe1  Fe  0.7600  0.924390  0.469450  0.518300  Uiso  0.015458
    Fe1  Fe  0.7600  0.778730  0.515240  0.518300  Uiso  0.015458
    Fe1  Fe  0.7600  0.633070  0.561030  0.518300  Uiso  0.015458
    Fe1  Fe  0.7600  0.487400  0.606810  0.518300  Uiso  0.015458
    Fe1  Fe  0.7600  0.341740  0.652600  0.518300  Uiso  0.015458
    Fe1  Fe  0.7600  0.196080  0.698380  0.518300  Uiso  0.015458
    Fe1  Fe  0.7600  0.050420  0.744170  0.518300  Uiso  0.015458
    Fe1  Fe  0.7600  0.972940  0.536190  0.518300  Uiso  0.015458
    Fe1  Fe  0.7600  0.827280  0.581970  0.518300  Uiso  0.015458
    Fe1  Fe  0.7600  0.681620  0.627760  0.518300  Uiso  0.015458
    Fe1  Fe  0.7600  0.535960  0.673540  0.518300  Uiso  0.015458
    Fe1  Fe  0.7600  0.390300  0.719330  0.518300  Uiso  0.015458
    Fe1  Fe  0.7600  0.244630  0.765120  0.518300  Uiso  0.015458
    Fe1  Fe  0.7600  0.098970  0.810900  0.518300  Uiso  0.015458
    Fe1  Fe  0.7600  0.875840  0.648700  0.518300  Uiso  0.015458
    Fe1  Fe  0.7600  0.730170  0.694490  0.518300  Uiso  0.015458
    Fe1  Fe  0.7600  0.584510  0.740280  0.518300  Uiso  0.015458
    Fe1  Fe  0.7600  0.438850  0.786060  0.518300  Uiso  0.015458
    Fe1  Fe  0.7600  0.293190  0.831850  0.518300  Uiso  0.015458
    Fe1  Fe  0.7600  0.147530  0.877630  0.518300  Uiso  0.015458
    Fe1  Fe  0.7600  0.001860  0.923420  0.518300  Uiso  0.015458
    Fe1  Fe  0.7600  0.924390  0.715440  0.518300  Uiso  0.015458
    Fe1  Fe  0.7600  0.778730  0.761220  0.518300  Uiso  0.015458
    Fe1  Fe  0.7600  0.633070  0.807010  0.518300  Uiso  0.015458
    Fe1  Fe  0.7600  0.487400  0.852790  0.518300  Uiso  0.015458
    Fe1  Fe  0.7600  0.341740  0.898580  0.518300  Uiso  0.015458
    Fe1  Fe  0.7600  0.196080  0.944370  0.518300  Uiso  0.015458
    Fe1  Fe  0.7600  0.050420  0.990150  0.518300  Uiso  0.015458
    Fe1  Fe  0.7600  0.972940  0.782170  0.518300  Uiso  0.015458
    Fe1  Fe  0.7600  0.827280  0.827950  0.518300  Uiso  0.015458
    Fe1  Fe  0.7600  0.681620  0.873740  0.518300  Uiso  0.015458
    Fe1  Fe  0.7600  0.535960  0.919530  0.518300  Uiso  0.015458
    Fe1  Fe  0.7600  0.390300  0.965310  0.518300  Uiso  0.015458
    Fe1  Fe  0.7600  0.875840  0.894690  0.518300  Uiso  0.015458
    Fe1  Fe  0.7600  0.730170  0.940470  0.518300  Uiso  0.015458
    Fe1  Fe  0.7600  0.584510  0.986260  0.518300  Uiso  0.015458
    Fe1  Fe  0.7600  0.924390  0.961420  0.518300  Uiso  0.015458
    Ca1  Ca  0.1800  0.050420  0.006220  0.518300  Uiso  0.015458
    Ca1  Ca  0.1800  0.244630  0.027170  0.518300  Uiso  0.015458
    Ca1  Ca  0.1800  0.098970  0.072960  0.518300  Uiso  0.015458
    Ca1  Ca  0.1800  0.584510  0.002330  0.518300  Uiso  0.015458
    Ca1  Ca  0.1800  0.438850  0.048120  0.518300  Uiso  0.015458
    Ca1  Ca  0.1800  0.293190  0.093900  0.518300  Uiso  0.015458
    Ca1  Ca  0.1800  0.147530  0.139690  0.518300  Uiso  0.015458
    Ca1  Ca  0.1800  0.001860  0.185470  0.518300  Uiso  0.015458
    Ca1  Ca  0.1800  0.778730  0.023280  0.518300  Uiso  0.015458
    Ca1  Ca  0.1800  0.633070  0.069060  0.518300  Uiso  0.015458
    Ca1  Ca  0.1800  0.487400  0.114850  0.518300  Uiso  0.015458
    Ca1  Ca  0.1800  0.341740  0.160630  0.518300  Uiso  0.015458
    Ca1  Ca  0.1800  0.196080  0.206420  0.518300  Uiso  0.015458
    Ca1  Ca  0.1800  0.050420  0.252210  0.518300  Uiso  0.015458
    Ca1  Ca  0.1800  0.972940  0.044220  0.518300  Uiso  0.015458
    Ca1  Ca  0.1800  0.827280  0.090010  0.518300  Uiso  0.015458
    Ca1  Ca  0.1800  0.681620  0.135790  0.518300  Uiso  0.015458
    Ca1  Ca  0.1800  0.535960  0.181580  0.518300  Uiso  0.015458
    Ca1  Ca  0.1800  0.390300  0.227370  0.518300  Uiso  0.015458
    Ca1  Ca  0.1800  0.244630  0.273150  0.518300  Uiso  0.015458
    Ca1  Ca  0.1800  0.098970  0.318940  0.518300  Uiso  0.015458
    Ca1  Ca  0.1800  0.875840  0.156740  0.518300  Uiso  0.015458
    Ca1  Ca  0.1800  0.730170  0.202530  0.518300  Uiso  0.015458
    Ca1  Ca  0.1800  0.584510  0.248310  0.518300  Uiso  0.015458
    Ca1  Ca  0.1800  0.438850  0.294100  0.518300  Uiso  0.015458
    Ca1  Ca  0.1800  0.293190  0.339880  0.518300  Uiso  0.015458
    Ca1  Ca  0.1800  0.147530  0.385670  0.518300  Uiso  0.015458
    Ca1  Ca  0.1800  0.001860  0.431460  0.518300  Uiso  0.015458
    Ca1  Ca  0.1800  0.924390  0.223470  0.518300  Uiso  0.015458
    Ca1  Ca  0.1800  0.778730  0.269260  0.518300  Uiso  0.015458
    Ca1  Ca  0.1800  0.633070  0.315040  0.518300  Uiso  0.015458
    Ca1  Ca  0.1800  0.487400  0.360830  0.518300  Uiso  0.015458
    Ca1  Ca  0.1800  0.341740  0.406620  0.518300  Uiso  0.015458
    Ca1  Ca  0.1800  0.196080  0.452400  0.518300  Uiso  0.015458
    Ca1  Ca  0.1800  0.050420  0.498190  0.518300  Uiso  0.015458
    Ca1  Ca  0.1800  0.972940  0.290200  0.518300  Uiso  0.015458
    Ca1  Ca  0.1800  0.827280  0.335990  0.518300  Uiso  0.015458
    Ca1  Ca  0.1800  0.681620  0.381780  0.518300  Uiso  0.015458
    Ca1  Ca  0.1800  0.535960  0.427560  0.518300  Uiso  0.015458
    Ca1  Ca  0.1800  0.390300  0.473350  0.518300  Uiso  0.015458
    Ca1  Ca  0.1800  0.244630  0.519130  0.518300  Uiso  0.015458
    Ca1  Ca  0.1800  0.098970  0.564920  0.518300  Uiso  0.015458
    Ca1  Ca  0.1800  0.875840  0.402720  0.518300  Uiso  0.015458
    Ca1  Ca  0.1800  0.730170  0.448510  0.518300  Uiso  0.015458
    Ca1  Ca  0.1800  0.584510  0.494290  0.518300  Uiso  0.015458
    Ca1  Ca  0.1800  0.438850  0.540080  0.518300  Uiso  0.015458
    Ca1  Ca  0.1800  0.293190  0.585870  0.518300  Uiso  0.015458
    Ca1  Ca  0.1800  0.147530  0.631650  0.518300  Uiso  0.015458
    Ca1  Ca  0.1800  0.001860  0.677440  0.518300  Uiso  0.015458
    Ca1  Ca  0.1800  0.924390  0.469450  0.518300  Uiso  0.015458
    Ca1  Ca  0.1800  0.778730  0.515240  0.518300  Uiso  0.015458
    Ca1  Ca  0.1800  0.633070  0.561030  0.518300  Uiso  0.015458
    Ca1  Ca  0.1800  0.487400  0.606810  0.518300  Uiso  0.015458
    Ca1  Ca  0.1800  0.341740  0.652600  0.518300  Uiso  0.015458
    Ca1  Ca  0.1800  0.196080  0.698380  0.518300  Uiso  0.015458
    Ca1  Ca  0.1800  0.050420  0.744170  0.518300  Uiso  0.015458
    Ca1  Ca  0.1800  0.972940  0.536190  0.518300  Uiso  0.015458
    Ca1  Ca  0.1800  0.827280  0.581970  0.518300  Uiso  0.015458
    Ca1  Ca  0.1800  0.681620  0.627760  0.518300  Uiso  0.015458
    Ca1  Ca  0.1800  0.535960  0.673540  0.518300  Uiso  0.015458
    Ca1  Ca  0.1800  0.390300  0.719330  0.518300  Uiso  0.015458
    Ca1  Ca  0.1800  0.244630  0.765120  0.518300  Uiso  0.015458
    Ca1  Ca  0.1800  0.098970  0.810900  0.518300  Uiso  0.015458
    Ca1  Ca  0.1800  0.875840  0.648700  0.518300  Uiso  0.015458
    Ca1  Ca  0.1800  0.730170  0.694490  0.518300  Uiso  0.015458
    Ca1  Ca  0.1800  0.584510  0.740280  0.518300  Uiso  0.015458
    Ca1  Ca  0.1800  0.438850  0.786060  0.518300  Uiso  0.015458
    Ca1  Ca  0.1800  0.293190  0.831850  0.518300  Uiso  0.015458
    Ca1  Ca  0.1800  0.147530  0.877630  0.518300  Uiso  0.015458
    Ca1  Ca  0.1800  0.001860  0.923420  0.518300  Uiso  0.015458
    Ca1  Ca  0.1800  0.924390  0.715440  0.518300  Uiso  0.015458
    Ca1  Ca  0.1800  0.778730  0.761220  0.518300  Uiso  0.015458
    Ca1  Ca  0.1800  0.633070  0.807010  0.518300  Uiso  0.015458
    Ca1  Ca  0.1800  0.487400  0.852790  0.518300  Uiso  0.015458
    Ca1  Ca  0.1800  0.341740  0.898580  0.518300  Uiso  0.015458
    Ca1  Ca  0.1800  0.196080  0.944370  0.518300  Uiso  0.015458
    Ca1  Ca  0.1800  0.050420  0.990150  0.518300  Uiso  0.015458
    Ca1  Ca  0.1800  0.972940  0.782170  0.518300  Uiso  0.015458
    Ca1  Ca  0.1800  0.827280  0.827950  0.518300  Uiso  0.015458
    Ca1  Ca  0.1800  0.681620  0.873740  0.518300  Uiso  0.015458
    Ca1  Ca  0.1800  0.535960  0.919530  0.518300  Uiso  0.015458
    Ca1  Ca  0.1800  0.390300  0.965310  0.518300  Uiso  0.015458
    Ca1  Ca  0.1800  0.875840  0.894690  0.518300  Uiso  0.015458
    Ca1  Ca  0.1800  0.730170  0.940470  0.518300  Uiso  0.015458
    Ca1  Ca  0.1800  0.584510  0.986260  0.518300  Uiso  0.015458
    Ca1  Ca  0.1800  0.924390  0.961420  0.518300  Uiso  0.015458
    Mg1  Mg  0.0600  0.050420  0.006220  0.518300  Uiso  0.015458
    Mg1  Mg  0.0600  0.244630  0.027170  0.518300  Uiso  0.015458
    Mg1  Mg  0.0600  0.098970  0.072960  0.518300  Uiso  0.015458
    Mg1  Mg  0.0600  0.584510  0.002330  0.518300  Uiso  0.015458
    Mg1  Mg  0.0600  0.438850  0.048120  0.518300  Uiso  0.015458
    Mg1  Mg  0.0600  0.293190  0.093900  0.518300  Uiso  0.015458
    Mg1  Mg  0.0600  0.147530  0.139690  0.518300  Uiso  0.015458
    Mg1  Mg  0.0600  0.001860  0.185470  0.518300  Uiso  0.015458
    Mg1  Mg  0.0600  0.778730  0.023280  0.518300  Uiso  0.015458
    Mg1  Mg  0.0600  0.633070  0.069060  0.518300  Uiso  0.015458
    Mg1  Mg  0.0600  0.487400  0.114850  0.518300  Uiso  0.015458
    Mg1  Mg  0.0600  0.341740  0.160630  0.518300  Uiso  0.015458
    Mg1  Mg  0.0600  0.196080  0.206420  0.518300  Uiso  0.015458
    Mg1  Mg  0.0600  0.050420  0.252210  0.518300  Uiso  0.015458
    Mg1  Mg  0.0600  0.972940  0.044220  0.518300  Uiso  0.015458
    Mg1  Mg  0.0600  0.827280  0.090010  0.518300  Uiso  0.015458
    Mg1  Mg  0.0600  0.681620  0.135790  0.518300  Uiso  0.015458
    Mg1  Mg  0.0600  0.535960  0.181580  0.518300  Uiso  0.015458
    Mg1  Mg  0.0600  0.390300  0.227370  0.518300  Uiso  0.015458
    Mg1  Mg  0.0600  0.244630  0.273150  0.518300  Uiso  0.015458
    Mg1  Mg  0.0600  0.098970  0.318940  0.518300  Uiso  0.015458
    Mg1  Mg  0.0600  0.875840  0.156740  0.518300  Uiso  0.015458
    Mg1  Mg  0.0600  0.730170  0.202530  0.518300  Uiso  0.015458
    Mg1  Mg  0.0600  0.584510  0.248310  0.518300  Uiso  0.015458
    Mg1  Mg  0.0600  0.438850  0.294100  0.518300  Uiso  0.015458
    Mg1  Mg  0.0600  0.293190  0.339880  0.518300  Uiso  0.015458
    Mg1  Mg  0.0600  0.147530  0.385670  0.518300  Uiso  0.015458
    Mg1  Mg  0.0600  0.001860  0.431460  0.518300  Uiso  0.015458
    Mg1  Mg  0.0600  0.924390  0.223470  0.518300  Uiso  0.015458
    Mg1  Mg  0.0600  0.778730  0.269260  0.518300  Uiso  0.015458
    Mg1  Mg  0.0600  0.633070  0.315040  0.518300  Uiso  0.015458
    Mg1  Mg  0.0600  0.487400  0.360830  0.518300  Uiso  0.015458
    Mg1  Mg  0.0600  0.341740  0.406620  0.518300  Uiso  0.015458
    Mg1  Mg  0.0600  0.196080  0.452400  0.518300  Uiso  0.015458
    Mg1  Mg  0.0600  0.050420  0.498190  0.518300  Uiso  0.015458
    Mg1  Mg  0.0600  0.972940  0.290200  0.518300  Uiso  0.015458
    Mg1  Mg  0.0600  0.827280  0.335990  0.518300  Uiso  0.015458
    Mg1  Mg  0.0600  0.681620  0.381780  0.518300  Uiso  0.015458
    Mg1  Mg  0.0600  0.535960  0.427560  0.518300  Uiso  0.015458
    Mg1  Mg  0.0600  0.390300  0.473350  0.518300  Uiso  0.015458
    Mg1  Mg  0.0600  0.244630  0.519130  0.518300  Uiso  0.015458
    Mg1  Mg  0.0600  0.098970  0.564920  0.518300  Uiso  0.015458
    Mg1  Mg  0.0600  0.875840  0.402720  0.518300  Uiso  0.015458
    Mg1  Mg  0.0600  0.730170  0.448510  0.518300  Uiso  0.015458
    Mg1  Mg  0.0600  0.584510  0.494290  0.518300  Uiso  0.015458
    Mg1  Mg  0.0600  0.438850  0.540080  0.518300  Uiso  0.015458
    Mg1  Mg  0.0600  0.293190  0.585870  0.518300  Uiso  0.015458
    Mg1  Mg  0.0600  0.147530  0.631650  0.518300  Uiso  0.015458
    Mg1  Mg  0.0600  0.001860  0.677440  0.518300  Uiso  0.015458
    Mg1  Mg  0.0600  0.924390  0.469450  0.518300  Uiso  0.015458
    Mg1  Mg  0.0600  0.778730  0.515240  0.518300  Uiso  0.015458
    Mg1  Mg  0.0600  0.633070  0.561030  0.518300  Uiso  0.015458
    Mg1  Mg  0.0600  0.487400  0.606810  0.518300  Uiso  0.015458
    Mg1  Mg  0.0600  0.341740  0.652600  0.518300  Uiso  0.015458
    Mg1  Mg  0.0600  0.196080  0.698380  0.518300  Uiso  0.015458
    Mg1  Mg  0.0600  0.050420  0.744170  0.518300  Uiso  0.015458
    Mg1  Mg  0.0600  0.972940  0.536190  0.518300  Uiso  0.015458
    Mg1  Mg  0.0600  0.827280  0.581970  0.518300  Uiso  0.015458
    Mg1  Mg  0.0600  0.681620  0.627760  0.518300  Uiso  0.015458
    Mg1  Mg  0.0600  0.535960  0.673540  0.518300  Uiso  0.015458
    Mg1  Mg  0.0600  0.390300  0.719330  0.518300  Uiso  0.015458
    Mg1  Mg  0.0600  0.244630  0.765120  0.518300  Uiso  0.015458
    Mg1  Mg  0.0600  0.098970  0.810900  0.518300  Uiso  0.015458
    Mg1  Mg  0.0600  0.875840  0.648700  0.518300  Uiso  0.015458
    Mg1  Mg  0.0600  0.730170  0.694490  0.518300  Uiso  0.015458
    Mg1  Mg  0.0600  0.584510  0.740280  0.518300  Uiso  0.015458
    Mg1  Mg  0.0600  0.438850  0.786060  0.518300  Uiso  0.015458
    Mg1  Mg  0.0600  0.293190  0.831850  0.518300  Uiso  0.015458
    Mg1  Mg  0.0600  0.147530  0.877630  0.518300  Uiso  0.015458
    Mg1  Mg  0.0600  0.001860  0.923420  0.518300  Uiso  0.015458
    Mg1  Mg  0.0600  0.924390  0.715440  0.518300  Uiso  0.015458
    Mg1  Mg  0.0600  0.778730  0.761220  0.518300  Uiso  0.015458
    Mg1  Mg  0.0600  0.633070  0.807010  0.518300  Uiso  0.015458
    Mg1  Mg  0.0600  0.487400  0.852790  0.518300  Uiso  0.015458
    Mg1  Mg  0.0600  0.341740  0.898580  0.518300  Uiso  0.015458
    Mg1  Mg  0.0600  0.196080  0.944370  0.518300  Uiso  0.015458
    Mg1  Mg  0.0600  0.050420  0.990150  0.518300  Uiso  0.015458
    Mg1  Mg  0.0600  0.972940  0.782170  0.518300  Uiso  0.015458
    Mg1  Mg  0.0600  0.827280  0.827950  0.518300  Uiso  0.015458
    Mg1  Mg  0.0600  0.681620  0.873740  0.518300  Uiso  0.015458
    Mg1  Mg  0.0600  0.535960  0.919530  0.518300  Uiso  0.015458
    Mg1  Mg  0.0600  0.390300  0.965310  0.518300  Uiso  0.015458
    Mg1  Mg  0.0600  0.875840  0.894690  0.518300  Uiso  0.015458
    Mg1  Mg  0.0600  0.730170  0.940470  0.518300  Uiso  0.015458
    Mg1  Mg  0.0600  0.584510  0.986260  0.518300  Uiso  0.015458
    Mg1  Mg  0.0600  0.924390  0.961420  0.518300  Uiso  0.015458
    Si1  Si  1.0000  0.016920  0.012750  0.839800  Uiso  0.007392
    Si1  Si  1.0000  0.211130  0.033690  0.839800  Uiso  0.007392
    Si1  Si  1.0000  0.065470  0.079480  0.839800  Uiso  0.007392
    Si1  Si  1.0000  0.551010  0.008850  0.839800  Uiso  0.007392
    Si1  Si  1.0000  0.405350  0.054640  0.839800  Uiso  0.007392
    Si1  Si  1.0000  0.259690  0.100420  0.839800  Uiso  0.007392
    Si1  Si  1.0000  0.114020  0.146210  0.839800  Uiso  0.007392
    Si1  Si  1.0000  0.745230  0.029800  0.839800  Uiso  0.007392
    Si1  Si  1.0000  0.599560  0.075580  0.839800  Uiso  0.007392
    Si1  Si  1.0000  0.453900  0.121370  0.839800  Uiso  0.007392
    Si1  Si  1.0000  0.308240  0.167160  0.839800  Uiso  0.007392
    Si1  Si  1.0000  0.162580  0.212940  0.839800  Uiso  0.007392
    Si1  Si  1.0000  0.016920  0.258730  0.839800  Uiso  0.007392
    Si1  Si  1.0000  0.939440  0.050740  0.839800  Uiso  0.007392
    Si1  Si  1.0000  0.793780  0.096530  0.839800  Uiso  0.007392
    Si1  Si  1.0000  0.648120  0.142320  0.839800  Uiso  0.007392
    Si1  Si  1.0000  0.502460  0.188100  0.839800  Uiso  0.007392
    Si1  Si  1.0000  0.356790  0.233890  0.839800  Uiso  0.007392
    Si1  Si  1.0000  0.211130  0.279670  0.839800  Uiso  0.007392
    Si1  Si  1.0000  0.065470  0.325460  0.839800  Uiso  0.007392
    Si1  Si  1.0000  0.988000  0.117480  0.839800  Uiso  0.007392
    Si1  Si  1.0000  0.842330  0.163260  0.839800  Uiso  0.007392
    Si1  Si  1.0000  0.696670  0.209050  0.839800  Uiso  0.007392
    Si1  Si  1.0000  0.551010  0.254830  0.839800  Uiso  0.007392
    Si1  Si  1.0000  0.405350  0.300620  0.839800  Uiso  0.007392
    Si1  Si  1.0000  0.259690  0.346410  0.839800  Uiso  0.007392
    Si1  Si  1.0000  0.114020  0.392190  0.839800  Uiso  0.007392
    Si1  Si  1.0000  0.890890  0.229990  0.839800  Uiso  0.007392
    Si1  Si  1.0000  0.745230  0.275780  0.839800  Uiso  0.007392
    Si1  Si  1.0000  0.599560  0.321570  0.839800  Uiso  0.007392
    Si1  Si  1.0000  0.453900  0.367350  0.839800  Uiso  0.007392
    Si1  Si  1.0000  0.308240  0.413140  0.839800  Uiso  0.007392
    Si1  Si  1.0000  0.162580  0.458920  0.839800  Uiso  0.007392
    Si1  Si  1.0000  0.016920  0.504710  0.839800  Uiso  0.007392
    Si1  Si  1.0000  0.939440  0.296730  0.839800  Uiso  0.007392
    Si1  Si  1.0000  0.793780  0.342510  0.839800  Uiso  0.007392
    Si1  Si  1.0000  0.648120  0.388300  0.839800  Uiso  0.007392
    Si1  Si  1.0000  0.502460  0.434080  0.839800  Uiso  0.007392
    Si1  Si  1.0000  0.356790  0.479870  0.839800  Uiso  0.007392
    Si1  Si  1.0000  0.211130  0.525660  0.839800  Uiso  0.007392
    Si1  Si  1.0000  0.065470  0.571440  0.839800  Uiso  0.007392
    Si1  Si  1.0000  0.988000  0.363460  0.839800  Uiso  0.007392
    Si1  Si  1.0000  0.842330  0.409240  0.839800  Uiso  0.007392
    Si1  Si  1.0000  0.696670  0.455030  0.839800  Uiso  0.007392
    Si1  Si  1.0000  0.551010  0.500820  0.839800  Uiso  0.007392
    Si1  Si  1.0000  0.405350  0.546600  0.839800  Uiso  0.007392
    Si1  Si  1.0000  0.259690  0.592390  0.839800  Uiso  0.007392
    Si1  Si  1.0000  0.114020  0.638170  0.839800  Uiso  0.007392
    Si1  Si  1.0000  0.890890  0.475980  0.839800  Uiso  0.007392
    Si1  Si  1.0000  0.745230  0.521760  0.839800  Uiso  0.007392
    Si1  Si  1.0000  0.599560  0.567550  0.839800  Uiso  0.007392
    Si1  Si  1.0000  0.453900  0.613330  0.839800  Uiso  0.007392
    Si1  Si  1.0000  0.308240  0.659120  0.839800  Uiso  0.007392
    Si1  Si  1.0000  0.162580  0.704910  0.839800  Uiso  0.007392
    Si1  Si  1.0000  0.016920  0.750690  0.839800  Uiso  0.007392
    Si1  Si  1.0000  0.939440  0.542710  0.839800  Uiso  0.007392
    Si1  Si  1.0000  0.793780  0.588490  0.839800  Uiso  0.007392
    Si1  Si  1.0000  0.648120  0.634280  0.839800  Uiso  0.007392
    Si1  Si  1.0000  0.502460  0.680070  0.839800  Uiso  0.007392
    Si1  Si  1.0000  0.356790  0.725850  0.839800  Uiso  0.007392
    Si1  Si  1.0000  0.211130  0.771640  0.839800  Uiso  0.007392
    Si1  Si  1.0000  0.065470  0.817420  0.839800  Uiso  0.007392
    Si1  Si  1.0000  0.988000  0.609440  0.839800  Uiso  0.007392
    Si1  Si  1.0000  0.842330  0.655230  0.839800  Uiso  0.007392
    Si1  Si  1.0000  0.696670  0.701010  0.839800  Uiso  0.007392
    Si1  Si  1.0000  0.551010  0.746800  0.839800  Uiso  0.007392
    Si1  Si  1.0000  0.405350  0.792580  0.839800  Uiso  0.007392
    Si1  Si  1.0000  0.259690  0.838370  0.839800  Uiso  0.007392
    Si1  Si  1.0000  0.114020  0.884160  0.839800  Uiso  0.007392
    Si1  Si  1.0000  0.890890  0.721960  0.839800  Uiso  0.007392
    Si1  Si  1.0000  0.745230  0.767740  0.839800  Uiso  0.007392
    Si1  Si  1.0000  0.599560  0.813530  0.839800  Uiso  0.007392
    Si1  Si  1.0000  0.453900  0.859320  0.839800  Uiso  0.007392
    Si1  Si  1.0000  0.308240  0.905100  0.839800  Uiso  0.007392
    Si1  Si  1.0000  0.162580  0.950890  0.839800  Uiso  0.007392
    Si1  Si  1.0000  0.016920  0.996670  0.839800  Uiso  0.007392
    Si1  Si  1.0000  0.939440  0.788690  0.839800  Uiso  0.007392
    Si1  Si  1.0000  0.793780  0.834470  0.839800  Uiso  0.007392
    Si1  Si  1.0000  0.648120  0.880260  0.839800  Uiso  0.007392
    Si1  Si  1.0000  0.502460  0.926050  0.839800  Uiso  0.007392
    Si1  Si  1.0000  0.356790  0.971830  0.839800  Uiso  0.007392
    Si1  Si  1.0000  0.988000  0.855420  0.839800  Uiso  0.007392
    Si1  Si  1.0000  0.842330  0.901210  0.839800  Uiso  0.007392
    Si1  Si  1.0000  0.696670  0.946990  0.839800  Uiso  0.007392
    Si1  Si  1.0000  0.551010  0.992780  0.839800  Uiso  0.007392
    Si1  Si  1.0000  0.890890  0.967940  0.839800  Uiso  0.007392
    Si1  Si  1.0000  0.287150  0.013280  0.336700  Uiso  0.006367
    Si1  Si  1.0000  0.141490  0.059070  0.336700  Uiso  0.006367
    Si1  Si  1.0000  0.481360  0.034230  0.336700  Uiso  0.006367
    Si1  Si  1.0000  0.335700  0.080010  0.336700  Uiso  0.006367
    Si1  Si  1.0000  0.190040  0.125800  0.336700  Uiso  0.006367
    Si1  Si  1.0000  0.044380  0.171590  0.336700  Uiso  0.006367
    Si1  Si  1.0000  0.821240  0.009390  0.336700  Uiso  0.006367
    Si1  Si  1.0000  0.675580  0.055170  0.336700  Uiso  0.006367
    Si1  Si  1.0000  0.529920  0.100960  0.336700  Uiso  0.006367
    Si1  Si  1.0000  0.384260  0.146750  0.336700  Uiso  0.006367
    Si1  Si  1.0000  0.238590  0.192530  0.336700  Uiso  0.006367
    Si1  Si  1.0000  0.092930  0.238320  0.336700  Uiso  0.006367
    Si1  Si  1.0000  0.869800  0.076120  0.336700  Uiso  0.006367
    Si1  Si  1.0000  0.724130  0.121910  0.336700  Uiso  0.006367
    Si1  Si  1.0000  0.578470  0.167690  0.336700  Uiso  0.006367
    Si1  Si  1.0000  0.432810  0.213480  0.336700  Uiso  0.006367
    Si1  Si  1.0000  0.287150  0.259260  0.336700  Uiso  0.006367
    Si1  Si  1.0000  0.141490  0.305050  0.336700  Uiso  0.006367
    Si1  Si  1.0000  0.918350  0.142850  0.336700  Uiso  0.006367
    Si1  Si  1.0000  0.772690  0.188640  0.336700  Uiso  0.006367
    Si1  Si  1.0000  0.627030  0.234420  0.336700  Uiso  0.006367
    Si1  Si  1.0000  0.481360  0.280210  0.336700  Uiso  0.006367
    Si1  Si  1.0000  0.335700  0.326000  0.336700  Uiso  0.006367
    Si1  Si  1.0000  0.190040  0.371780  0.336700  Uiso  0.006367
    Si1  Si  1.0000  0.044380  0.417570  0.336700  Uiso  0.006367
    Si1  Si  1.0000  0.966900  0.209580  0.336700  Uiso  0.006367
    Si1  Si  1.0000  0.821240  0.255370  0.336700  Uiso  0.006367
    Si1  Si  1.0000  0.675580  0.301160  0.336700  Uiso  0.006367
    Si1  Si  1.0000  0.529920  0.346940  0.336700  Uiso  0.006367
    Si1  Si  1.0000  0.384260  0.392730  0.336700  Uiso  0.006367
    Si1  Si  1.0000  0.238590  0.438510  0.336700  Uiso  0.006367
    Si1  Si  1.0000  0.092930  0.484300  0.336700  Uiso  0.006367
    Si1  Si  1.0000  0.869800  0.322100  0.336700  Uiso  0.006367
    Si1  Si  1.0000  0.724130  0.367890  0.336700  Uiso  0.006367
    Si1  Si  1.0000  0.578470  0.413670  0.336700  Uiso  0.006367
    Si1  Si  1.0000  0.432810  0.459460  0.336700  Uiso  0.006367
    Si1  Si  1.0000  0.287150  0.505250  0.336700  Uiso  0.006367
    Si1  Si  1.0000  0.141490  0.551030  0.336700  Uiso  0.006367
    Si1  Si  1.0000  0.918350  0.388830  0.336700  Uiso  0.006367
    Si1  Si  1.0000  0.772690  0.434620  0.336700  Uiso  0.006367
    Si1  Si  1.0000  0.627030  0.480410  0.336700  Uiso  0.006367
    Si1  Si  1.0000  0.481360  0.526190  0.336700  Uiso  0.006367
    Si1  Si  1.0000  0.335700  0.571980  0.336700  Uiso  0.006367
    Si1  Si  1.0000  0.190040  0.617760  0.336700  Uiso  0.006367
    Si1  Si  1.0000  0.044380  0.663550  0.336700  Uiso  0.006367
    Si1  Si  1.0000  0.966900  0.455570  0.336700  Uiso  0.006367
    Si1  Si  1.0000  0.821240  0.501350  0.336700  Uiso  0.006367
    Si1  Si  1.0000  0.675580  0.547140  0.336700  Uiso  0.006367
    Si1  Si  1.0000  0.529920  0.592920  0.336700  Uiso  0.006367
    Si1  Si  1.0000  0.384260  0.638710  0.336700  Uiso  0.006367
    Si1  Si  1.0000  0.238590  0.684500  0.336700  Uiso  0.006367
    Si1  Si  1.0000  0.092930  0.730280  0.336700  Uiso  0.006367
    Si1  Si  1.0000  0.869800  0.568080  0.336700  Uiso  0.006367
    Si1  Si  1.0000  0.724130  0.613870  0.336700  Uiso  0.006367
    Si1  Si  1.0000  0.578470  0.659660  0.336700  Uiso  0.006367
    Si1  Si  1.0000  0.432810  0.705440  0.336700  Uiso  0.006367
    Si1  Si  1.0000  0.287150  0.751230  0.336700  Uiso  0.006367
    Si1  Si  1.0000  0.141490  0.797010  0.336700  Uiso  0.006367
    Si1  Si  1.0000  0.918350  0.634820  0.336700  Uiso  0.006367
    Si1  Si  1.0000  0.772690  0.680600  0.336700  Uiso  0.006367
    Si1  Si  1.0000  0.627030  0.726390  0.336700  Uiso  0.006367
    Si1  Si  1.0000  0.481360  0.772170  0.336700  Uiso  0.006367
    Si1  Si  1.0000  0.335700  0.817960  0.336700  Uiso  0.006367
    Si1  Si  1.0000  0.190040  0.863750  0.336700  Uiso  0.006367
    Si1  Si  1.0000  0.044380  0.909530  0.336700  Uiso  0.006367
    Si1  Si  1.0000  0.966900  0.701550  0.336700  Uiso  0.006367
    Si1  Si  1.0000  0.821240  0.747330  0.336700  Uiso  0.006367
    Si1  Si  1.0000  0.675580  0.793120  0.336700  Uiso  0.006367
    Si1  Si  1.0000  0.529920  0.838910  0.336700  Uiso  0.006367
    Si1  Si  1.0000  0.384260  0.884690  0.336700  Uiso  0.006367
    Si1  Si  1.0000  0.238590  0.930480  0.336700  Uiso  0.006367
    Si1  Si  1.0000  0.092930  0.976260  0.336700  Uiso  0.006367
    Si1  Si  1.0000  0.869800  0.814070  0.336700  Uiso  0.006367
    Si1  Si  1.0000  0.724130  0.859850  0.336700  Uiso  0.006367
    Si1  Si  1.0000  0.578470  0.905640  0.336700  Uiso  0.006367
    Si1  Si  1.0000  0.432810  0.951420  0.336700  Uiso  0.006367
    Si1  Si  1.0000  0.287150  0.997210  0.336700  Uiso  0.006367
    Si1  Si  1.0000  0.918350  0.880800  0.336700  Uiso  0.006367
    Si1  Si  1.0000  0.772690  0.926580  0.336700  Uiso  0.006367
    Si1  Si  1.0000  0.627030  0.972370  0.336700  Uiso  0.006367
    Si1  Si  1.0000  0.966900  0.947530  0.336700  Uiso  0.006367
    Si1  Si  1.0000  0.821240  0.993320  0.336700  Uiso  0.006367
    O1  O  1.0000  0.050500  0.011060  0.840400  Uiso  0.007809
    O1  O  1.0000  0.244720  0.032010  0.840400  Uiso  0.007809
    O1  O  1.0000  0.099050  0.077790  0.840400  Uiso  0.007809
    O1  O  1.0000  0.584590  0.007170  0.840400  Uiso  0.007809
    O1  O  1.0000  0.438930  0.052950  0.840400  Uiso  0.007809
    O1  O  1.0000  0.293270  0.098740  0.840400  Uiso  0.007809
    O1  O  1.0000  0.147610  0.144520  0.840400  Uiso  0.007809
    O1  O  1.0000  0.001950  0.190310  0.840400  Uiso  0.007809
    O1  O  1.0000  0.778810  0.028110  0.840400  Uiso  0.007809
    O1  O  1.0000  0.633150  0.073900  0.840400  Uiso  0.007809
    O1  O  1.0000  0.487490  0.119680  0.840400  Uiso  0.007809
    O1  O  1.0000  0.341820  0.165470  0.840400  Uiso  0.007809
    O1  O  1.0000  0.196160  0.211260  0.840400  Uiso  0.007809
    O1  O  1.0000  0.050500  0.257040  0.840400  Uiso  0.007809
    O1  O  1.0000  0.973030  0.049060  0.840400  Uiso  0.007809
    O1  O  1.0000  0.827360  0.094840  0.840400  Uiso  0.007809
    O1  O  1.0000  0.681700  0.140630  0.840400  Uiso  0.007809
    O1  O  1.0000  0.536040  0.186420  0.840400  Uiso  0.007809
    O1  O  1.0000  0.390380  0.232200  0.840400  Uiso  0.007809
    O1  O  1.0000  0.244720  0.277990  0.840400  Uiso  0.007809
    O1  O  1.0000  0.099050  0.323770  0.840400  Uiso  0.007809
    O1  O  1.0000  0.875920  0.161580  0.840400  Uiso  0.007809
    O1  O  1.0000  0.730260  0.207360  0.840400  Uiso  0.007809
    O1  O  1.0000  0.584590  0.253150  0.840400  Uiso  0.007809
    O1  O  1.0000  0.438930  0.298930  0.840400  Uiso  0.007809
    O1  O  1.0000  0.293270  0.344720  0.840400  Uiso  0.007809
    O1  O  1.0000  0.147610  0.390510  0.840400  Uiso  0.007809
    O1  O  1.0000  0.001950  0.436290  0.840400  Uiso  0.007809
    O1  O  1.0000  0.924470  0.228310  0.840400  Uiso  0.007809
    O1  O  1.0000  0.778810  0.274090  0.840400  Uiso  0.007809
    O1  O  1.0000  0.633150  0.319880  0.840400  Uiso  0.007809
    O1  O  1.0000  0.487490  0.365670  0.840400  Uiso  0.007809
    O1  O  1.0000  0.341820  0.411450  0.840400  Uiso  0.007809
    O1  O  1.0000  0.196160  0.457240  0.840400  Uiso  0.007809
    O1  O  1.0000  0.050500  0.503020  0.840400  Uiso  0.007809
    O1  O  1.0000  0.973030  0.295040  0.840400  Uiso  0.007809
    O1  O  1.0000  0.827360  0.340830  0.840400  Uiso  0.007809
    O1  O  1.0000  0.681700  0.386610  0.840400  Uiso  0.007809
    O1  O  1.0000  0.536040  0.432400  0.840400  Uiso  0.007809
    O1  O  1.0000  0.390380  0.478180  0.840400  Uiso  0.007809
    O1  O  1.0000  0.244720  0.523970  0.840400  Uiso  0.007809
    O1  O  1.0000  0.099050  0.569760  0.840400  Uiso  0.007809
    O1  O  1.0000  0.875920  0.407560  0.840400  Uiso  0.007809
    O1  O  1.0000  0.730260  0.453340  0.840400  Uiso  0.007809
    O1  O  1.0000  0.584590  0.499130  0.840400  Uiso  0.007809
    O1  O  1.0000  0.438930  0.544920  0.840400  Uiso  0.007809
    O1  O  1.0000  0.293270  0.590700  0.840400  Uiso  0.007809
    O1  O  1.0000  0.147610  0.636490  0.840400  Uiso  0.007809
    O1  O  1.0000  0.001950  0.682270  0.840400  Uiso  0.007809
    O1  O  1.0000  0.924470  0.474290  0.840400  Uiso  0.007809
    O1  O  1.0000  0.778810  0.520080  0.840400  Uiso  0.007809
    O1  O  1.0000  0.633150  0.565860  0.840400  Uiso  0.007809
    O1  O  1.0000  0.487490  0.611650  0.840400  Uiso  0.007809
    O1  O  1.0000  0.341820  0.657430  0.840400  Uiso  0.007809
    O1  O  1.0000  0.196160  0.703220  0.840400  Uiso  0.007809
    O1  O  1.0000  0.050500  0.749010  0.840400  Uiso  0.007809
    O1  O  1.0000  0.973030  0.541020  0.840400  Uiso  0.007809
    O1  O  1.0000  0.827360  0.586810  0.840400  Uiso  0.007809
    O1  O  1.0000  0.681700  0.632590  0.840400  Uiso  0.007809
    O1  O  1.0000  0.536040  0.678380  0.840400  Uiso  0.007809
    O1  O  1.0000  0.390380  0.724170  0.840400  Uiso  0.007809
    O1  O  1.0000  0.244720  0.769950  0.840400  Uiso  0.007809
    O1  O  1.0000  0.099050  0.815740  0.840400  Uiso  0.007809
    O1  O  1.0000  0.875920  0.653540  0.840400  Uiso  0.007809
    O1  O  1.0000  0.730260  0.699330  0.840400  Uiso  0.007809
    O1  O  1.0000  0.584590  0.745110  0.840400  Uiso  0.007809
    O1  O  1.0000  0.438930  0.790900  0.840400  Uiso  0.007809
    O1  O  1.0000  0.293270  0.836680  0.840400  Uiso  0.007809
    O1  O  1.0000  0.147610  0.882470  0.840400  Uiso  0.007809
    O1  O  1.0000  0.001950  0.928260  0.840400  Uiso  0.007809
    O1  O  1.0000  0.924470  0.720270  0.840400  Uiso  0.007809
    O1  O  1.0000  0.778810  0.766060  0.840400  Uiso  0.007809
    O1  O  1.0000  0.633150  0.811840  0.840400  Uiso  0.007809
    O1  O  1.0000  0.487490  0.857630  0.840400  Uiso  0.007809
    O1  O  1.0000  0.341820  0.903420  0.840400  Uiso  0.007809
    O1  O  1.0000  0.196160  0.949200  0.840400  Uiso  0.007809
    O1  O  1.0000  0.050500  0.994990  0.840400  Uiso  0.007809
    O1  O  1.0000  0.973030  0.787000  0.840400  Uiso  0.007809
    O1  O  1.0000  0.827360  0.832790  0.840400  Uiso  0.007809
    O1  O  1.0000  0.681700  0.878580  0.840400  Uiso  0.007809
    O1  O  1.0000  0.536040  0.924360  0.840400  Uiso  0.007809
    O1  O  1.0000  0.390380  0.970150  0.840400  Uiso  0.007809
    O1  O  1.0000  0.875920  0.899520  0.840400  Uiso  0.007809
    O1  O  1.0000  0.730260  0.945310  0.840400  Uiso  0.007809
    O1  O  1.0000  0.584590  0.991090  0.840400  Uiso  0.007809
    O1  O  1.0000  0.924470  0.966250  0.840400  Uiso  0.007809
    O1  O  1.0000  0.026000  0.005720  0.997000  Uiso  0.010060
    O1  O  1.0000  0.220210  0.026660  0.997000  Uiso  0.010060
    O1  O  1.0000  0.074550  0.072450  0.997000  Uiso  0.010060
    O1  O  1.0000  0.560090  0.001820  0.997000  Uiso  0.010060
    O1  O  1.0000  0.414430  0.047610  0.997000  Uiso  0.010060
    O1  O  1.0000  0.268770  0.093400  0.997000  Uiso  0.010060
    O1  O  1.0000  0.123100  0.139180  0.997000  Uiso  0.010060
    O1  O  1.0000  0.754310  0.022770  0.997000  Uiso  0.010060
    O1  O  1.0000  0.608640  0.068560  0.997000  Uiso  0.010060
    O1  O  1.0000  0.462980  0.114340  0.997000  Uiso  0.010060
    O1  O  1.0000  0.317320  0.160130  0.997000  Uiso  0.010060
    O1  O  1.0000  0.171660  0.205910  0.997000  Uiso  0.010060
    O1  O  1.0000  0.026000  0.251700  0.997000  Uiso  0.010060
    O1  O  1.0000  0.948520  0.043720  0.997000  Uiso  0.010060
    O1  O  1.0000  0.802860  0.089500  0.997000  Uiso  0.010060
    O1  O  1.0000  0.657200  0.135290  0.997000  Uiso  0.010060
    O1  O  1.0000  0.511540  0.181070  0.997000  Uiso  0.010060
    O1  O  1.0000  0.365870  0.226860  0.997000  Uiso  0.010060
    O1  O  1.0000  0.220210  0.272650  0.997000  Uiso  0.010060
    O1  O  1.0000  0.074550  0.318430  0.997000  Uiso  0.010060
    O1  O  1.0000  0.997070  0.110450  0.997000  Uiso  0.010060
    O1  O  1.0000  0.851410  0.156230  0.997000  Uiso  0.010060
    O1  O  1.0000  0.705750  0.202020  0.997000  Uiso  0.010060
    O1  O  1.0000  0.560090  0.247810  0.997000  Uiso  0.010060
    O1  O  1.0000  0.414430  0.293590  0.997000  Uiso  0.010060
    O1  O  1.0000  0.268770  0.339380  0.997000  Uiso  0.010060
    O1  O  1.0000  0.123100  0.385160  0.997000  Uiso  0.010060
    O1  O  1.0000  0.899970  0.222970  0.997000  Uiso  0.010060
    O1  O  1.0000  0.754310  0.268750  0.997000  Uiso  0.010060
    O1  O  1.0000  0.608640  0.314540  0.997000  Uiso  0.010060
    O1  O  1.0000  0.462980  0.360320  0.997000  Uiso  0.010060
    O1  O  1.0000  0.317320  0.406110  0.997000  Uiso  0.010060
    O1  O  1.0000  0.171660  0.451900  0.997000  Uiso  0.010060
    O1  O  1.0000  0.026000  0.497680  0.997000  Uiso  0.010060
    O1  O  1.0000  0.948520  0.289700  0.997000  Uiso  0.010060
    O1  O  1.0000  0.802860  0.335480  0.997000  Uiso  0.010060
    O1  O  1.0000  0.657200  0.381270  0.997000  Uiso  0.010060
    O1  O  1.0000  0.511540  0.427060  0.997000  Uiso  0.010060
    O1  O  1.0000  0.365870  0.472840  0.997000  Uiso  0.010060
    O1  O  1.0000  0.220210  0.518630  0.997000  Uiso  0.010060
    O1  O  1.0000  0.074550  0.564410  0.997000  Uiso  0.010060
    O1  O  1.0000  0.997070  0.356430  0.997000  Uiso  0.010060
    O1  O  1.0000  0.851410  0.402220  0.997000  Uiso  0.010060
    O1  O  1.0000  0.705750  0.448000  0.997000  Uiso  0.010060
    O1  O  1.0000  0.560090  0.493790  0.997000  Uiso  0.010060
    O1  O  1.0000  0.414430  0.539570  0.997000  Uiso  0.010060
    O1  O  1.0000  0.268770  0.585360  0.997000  Uiso  0.010060
    O1  O  1.0000  0.123100  0.631150  0.997000  Uiso  0.010060
    O1  O  1.0000  0.899970  0.468950  0.997000  Uiso  0.010060
    O1  O  1.0000  0.754310  0.514730  0.997000  Uiso  0.010060
    O1  O  1.0000  0.608640  0.560520  0.997000  Uiso  0.010060
    O1  O  1.0000  0.462980  0.606310  0.997000  Uiso  0.010060
    O1  O  1.0000  0.317320  0.652090  0.997000  Uiso  0.010060
    O1  O  1.0000  0.171660  0.697880  0.997000  Uiso  0.010060
    O1  O  1.0000  0.026000  0.743660  0.997000  Uiso  0.010060
    O1  O  1.0000  0.948520  0.535680  0.997000  Uiso  0.010060
    O1  O  1.0000  0.802860  0.581470  0.997000  Uiso  0.010060
    O1  O  1.0000  0.657200  0.627250  0.997000  Uiso  0.010060
    O1  O  1.0000  0.511540  0.673040  0.997000  Uiso  0.010060
    O1  O  1.0000  0.365870  0.718820  0.997000  Uiso  0.010060
    O1  O  1.0000  0.220210  0.764610  0.997000  Uiso  0.010060
    O1  O  1.0000  0.074550  0.810400  0.997000  Uiso  0.010060
    O1  O  1.0000  0.997070  0.602410  0.997000  Uiso  0.010060
    O1  O  1.0000  0.851410  0.648200  0.997000  Uiso  0.010060
    O1  O  1.0000  0.705750  0.693980  0.997000  Uiso  0.010060
    O1  O  1.0000  0.560090  0.739770  0.997000  Uiso  0.010060
    O1  O  1.0000  0.414430  0.785560  0.997000  Uiso  0.010060
    O1  O  1.0000  0.268770  0.831340  0.997000  Uiso  0.010060
    O1  O  1.0000  0.123100  0.877130  0.997000  Uiso  0.010060
    O1  O  1.0000  0.899970  0.714930  0.997000  Uiso  0.010060
    O1  O  1.0000  0.754310  0.760720  0.997000  Uiso  0.010060
    O1  O  1.0000  0.608640  0.806500  0.997000  Uiso  0.010060
    O1  O  1.0000  0.462980  0.852290  0.997000  Uiso  0.010060
    O1  O  1.0000  0.317320  0.898070  0.997000  Uiso  0.010060
    O1  O  1.0000  0.171660  0.943860  0.997000  Uiso  0.010060
    O1  O  1.0000  0.026000  0.989650  0.997000  Uiso  0.010060
    O1  O  1.0000  0.948520  0.781660  0.997000  Uiso  0.010060
    O1  O  1.0000  0.802860  0.827450  0.997000  Uiso  0.010060
    O1  O  1.0000  0.657200  0.873230  0.997000  Uiso  0.010060
    O1  O  1.0000  0.511540  0.919020  0.997000  Uiso  0.010060
    O1  O  1.0000  0.365870  0.964810  0.997000  Uiso  0.010060
    O1  O  1.0000  0.997070  0.848390  0.997000  Uiso  0.010060
    O1  O  1.0000  0.851410  0.894180  0.997000  Uiso  0.010060
    O1  O  1.0000  0.705750  0.939970  0.997000  Uiso  0.010060
    O1  O  1.0000  0.560090  0.985750  0.997000  Uiso  0.010060
    O1  O  1.0000  0.899970  0.960910  0.997000  Uiso  0.010060
    O1  O  1.0000  0.205540  0.011000  0.763300  Uiso  0.011470
    O1  O  1.0000  0.059880  0.056790  0.763300  Uiso  0.011470
    O1  O  1.0000  0.399750  0.031950  0.763300  Uiso  0.011470
    O1  O  1.0000  0.254090  0.077730  0.763300  Uiso  0.011470
    O1  O  1.0000  0.108430  0.123520  0.763300  Uiso  0.011470
    O1  O  1.0000  0.739630  0.007110  0.763300  Uiso  0.011470
    O1  O  1.0000  0.593970  0.052890  0.763300  Uiso  0.011470
    O1  O  1.0000  0.448310  0.098680  0.763300  Uiso  0.011470
    O1  O  1.0000  0.302650  0.144460  0.763300  Uiso  0.011470
    O1  O  1.0000  0.156980  0.190250  0.763300  Uiso  0.011470
    O1  O  1.0000  0.011320  0.236040  0.763300  Uiso  0.011470
    O1  O  1.0000  0.933850  0.028050  0.763300  Uiso  0.011470
    O1  O  1.0000  0.788190  0.073840  0.763300  Uiso  0.011470
    O1  O  1.0000  0.642520  0.119620  0.763300  Uiso  0.011470
    O1  O  1.0000  0.496860  0.165410  0.763300  Uiso  0.011470
    O1  O  1.0000  0.351200  0.211200  0.763300  Uiso  0.011470
    O1  O  1.0000  0.205540  0.256980  0.763300  Uiso  0.011470
    O1  O  1.0000  0.059880  0.302770  0.763300  Uiso  0.011470
    O1  O  1.0000  0.982400  0.094780  0.763300  Uiso  0.011470
    O1  O  1.0000  0.836740  0.140570  0.763300  Uiso  0.011470
    O1  O  1.0000  0.691080  0.186360  0.763300  Uiso  0.011470
    O1  O  1.0000  0.545420  0.232140  0.763300  Uiso  0.011470
    O1  O  1.0000  0.399750  0.277930  0.763300  Uiso  0.011470
    O1  O  1.0000  0.254090  0.323710  0.763300  Uiso  0.011470
    O1  O  1.0000  0.108430  0.369500  0.763300  Uiso  0.011470
    O1  O  1.0000  0.885290  0.207300  0.763300  Uiso  0.011470
    O1  O  1.0000  0.739630  0.253090  0.763300  Uiso  0.011470
    O1  O  1.0000  0.593970  0.298870  0.763300  Uiso  0.011470
    O1  O  1.0000  0.448310  0.344660  0.763300  Uiso  0.011470
    O1  O  1.0000  0.302650  0.390450  0.763300  Uiso  0.011470
    O1  O  1.0000  0.156980  0.436230  0.763300  Uiso  0.011470
    O1  O  1.0000  0.011320  0.482020  0.763300  Uiso  0.011470
    O1  O  1.0000  0.933850  0.274030  0.763300  Uiso  0.011470
    O1  O  1.0000  0.788190  0.319820  0.763300  Uiso  0.011470
    O1  O  1.0000  0.642520  0.365610  0.763300  Uiso  0.011470
    O1  O  1.0000  0.496860  0.411390  0.763300  Uiso  0.011470
    O1  O  1.0000  0.351200  0.457180  0.763300  Uiso  0.011470
    O1  O  1.0000  0.205540  0.502960  0.763300  Uiso  0.011470
    O1  O  1.0000  0.059880  0.548750  0.763300  Uiso  0.011470
    O1  O  1.0000  0.982400  0.340770  0.763300  Uiso  0.011470
    O1  O  1.0000  0.836740  0.386550  0.763300  Uiso  0.011470
    O1  O  1.0000  0.691080  0.432340  0.763300  Uiso  0.011470
    O1  O  1.0000  0.545420  0.478120  0.763300  Uiso  0.011470
    O1  O  1.0000  0.399750  0.523910  0.763300  Uiso  0.011470
    O1  O  1.0000  0.254090  0.569690  0.763300  Uiso  0.011470
    O1  O  1.0000  0.108430  0.615480  0.763300  Uiso  0.011470
    O1  O  1.0000  0.885290  0.453280  0.763300  Uiso  0.011470
    O1  O  1.0000  0.739630  0.499070  0.763300  Uiso  0.011470
    O1  O  1.0000  0.593970  0.544850  0.763300  Uiso  0.011470
    O1  O  1.0000  0.448310  0.590640  0.763300  Uiso  0.011470
    O1  O  1.0000  0.302650  0.636430  0.763300  Uiso  0.011470
    O1  O  1.0000  0.156980  0.682210  0.763300  Uiso  0.011470
    O1  O  1.0000  0.011320  0.728000  0.763300  Uiso  0.011470
    O1  O  1.0000  0.933850  0.520010  0.763300  Uiso  0.011470
    O1  O  1.0000  0.788190  0.565800  0.763300  Uiso  0.011470
    O1  O  1.0000  0.642520  0.611590  0.763300  Uiso  0.011470
    O1  O  1.0000  0.496860  0.657370  0.763300  Uiso  0.011470
    O1  O  1.0000  0.351200  0.703160  0.763300  Uiso  0.011470
    O1  O  1.0000  0.205540  0.748940  0.763300  Uiso  0.011470
    O1  O  1.0000  0.059880  0.794730  0.763300  Uiso  0.011470
    O1  O  1.0000  0.982400  0.586750  0.763300  Uiso  0.011470
    O1  O  1.0000  0.836740  0.632530  0.763300  Uiso  0.011470
    O1  O  1.0000  0.691080  0.678320  0.763300  Uiso  0.011470
    O1  O  1.0000  0.545420  0.724100  0.763300  Uiso  0.011470
    O1  O  1.0000  0.399750  0.769890  0.763300  Uiso  0.011470
    O1  O  1.0000  0.254090  0.815680  0.763300  Uiso  0.011470
    O1  O  1.0000  0.108430  0.861460  0.763300  Uiso  0.011470
    O1  O  1.0000  0.885290  0.699260  0.763300  Uiso  0.011470
    O1  O  1.0000  0.739630  0.745050  0.763300  Uiso  0.011470
    O1  O  1.0000  0.593970  0.790840  0.763300  Uiso  0.011470
    O1  O  1.0000  0.448310  0.836620  0.763300  Uiso  0.011470
    O1  O  1.0000  0.302650  0.882410  0.763300  Uiso  0.011470
    O1  O  1.0000  0.156980  0.928190  0.763300  Uiso  0.011470
    O1  O  1.0000  0.011320  0.973980  0.763300  Uiso  0.011470
    O1  O  1.0000  0.933850  0.766000  0.763300  Uiso  0.011470
    O1  O  1.0000  0.788190  0.811780  0.763300  Uiso  0.011470
    O1  O  1.0000  0.642520  0.857570  0.763300  Uiso  0.011470
    O1  O  1.0000  0.496860  0.903350  0.763300  Uiso  0.011470
    O1  O  1.0000  0.351200  0.949140  0.763300  Uiso  0.011470
    O1  O  1.0000  0.205540  0.994930  0.763300  Uiso  0.011470
    O1  O  1.0000  0.982400  0.832730  0.763300  Uiso  0.011470
    O1  O  1.0000  0.836740  0.878510  0.763300  Uiso  0.011470
    O1  O  1.0000  0.691080  0.924300  0.763300  Uiso  0.011470
    O1  O  1.0000  0.545420  0.970090  0.763300  Uiso  0.011470
    O1  O  1.0000  0.885290  0.945250  0.763300  Uiso  0.011470
    O1  O  1.0000  0.739630  0.991030  0.763300  Uiso  0.011470
    O1  O  1.0000  0.072270  0.007260  0.334200  Uiso  0.007491
    O1  O  1.0000  0.266490  0.028210  0.334200  Uiso  0.007491
    O1  O  1.0000  0.120830  0.073990  0.334200  Uiso  0.007491
    O1  O  1.0000  0.606370  0.003370  0.334200  Uiso  0.007491
    O1  O  1.0000  0.460700  0.049150  0.334200  Uiso  0.007491
    O1  O  1.0000  0.315040  0.094940  0.334200  Uiso  0.007491
    O1  O  1.0000  0.169380  0.140720  0.334200  Uiso  0.007491
    O1  O  1.0000  0.023720  0.186510  0.334200  Uiso  0.007491
    O1  O  1.0000  0.800580  0.024310  0.334200  Uiso  0.007491
    O1  O  1.0000  0.654920  0.070100  0.334200  Uiso  0.007491
    O1  O  1.0000  0.509260  0.115880  0.334200  Uiso  0.007491
    O1  O  1.0000  0.363600  0.161670  0.334200  Uiso  0.007491
    O1  O  1.0000  0.217930  0.207460  0.334200  Uiso  0.007491
    O1  O  1.0000  0.072270  0.253240  0.334200  Uiso  0.007491
    O1  O  1.0000  0.994800  0.045260  0.334200  Uiso  0.007491
    O1  O  1.0000  0.849140  0.091040  0.334200  Uiso  0.007491
    O1  O  1.0000  0.703470  0.136830  0.334200  Uiso  0.007491
    O1  O  1.0000  0.557810  0.182620  0.334200  Uiso  0.007491
    O1  O  1.0000  0.412150  0.228400  0.334200  Uiso  0.007491
    O1  O  1.0000  0.266490  0.274190  0.334200  Uiso  0.007491
    O1  O  1.0000  0.120830  0.319970  0.334200  Uiso  0.007491
    O1  O  1.0000  0.897690  0.157780  0.334200  Uiso  0.007491
    O1  O  1.0000  0.752030  0.203560  0.334200  Uiso  0.007491
    O1  O  1.0000  0.606370  0.249350  0.334200  Uiso  0.007491
    O1  O  1.0000  0.460700  0.295130  0.334200  Uiso  0.007491
    O1  O  1.0000  0.315040  0.340920  0.334200  Uiso  0.007491
    O1  O  1.0000  0.169380  0.386710  0.334200  Uiso  0.007491
    O1  O  1.0000  0.023720  0.432490  0.334200  Uiso  0.007491
    O1  O  1.0000  0.946240  0.224510  0.334200  Uiso  0.007491
    O1  O  1.0000  0.800580  0.270290  0.334200  Uiso  0.007491
    O1  O  1.0000  0.654920  0.316080  0.334200  Uiso  0.007491
    O1  O  1.0000  0.509260  0.361870  0.334200  Uiso  0.007491
    O1  O  1.0000  0.363600  0.407650  0.334200  Uiso  0.007491
    O1  O  1.0000  0.217930  0.453440  0.334200  Uiso  0.007491
    O1  O  1.0000  0.072270  0.499220  0.334200  Uiso  0.007491
    O1  O  1.0000  0.994800  0.291240  0.334200  Uiso  0.007491
    O1  O  1.0000  0.849140  0.337030  0.334200  Uiso  0.007491
    O1  O  1.0000  0.703470  0.382810  0.334200  Uiso  0.007491
    O1  O  1.0000  0.557810  0.428600  0.334200  Uiso  0.007491
    O1  O  1.0000  0.412150  0.474380  0.334200  Uiso  0.007491
    O1  O  1.0000  0.266490  0.520170  0.334200  Uiso  0.007491
    O1  O  1.0000  0.120830  0.565950  0.334200  Uiso  0.007491
    O1  O  1.0000  0.897690  0.403760  0.334200  Uiso  0.007491
    O1  O  1.0000  0.752030  0.449540  0.334200  Uiso  0.007491
    O1  O  1.0000  0.606370  0.495330  0.334200  Uiso  0.007491
    O1  O  1.0000  0.460700  0.541110  0.334200  Uiso  0.007491
    O1  O  1.0000  0.315040  0.586900  0.334200  Uiso  0.007491
    O1  O  1.0000  0.169380  0.632690  0.334200  Uiso  0.007491
    O1  O  1.0000  0.023720  0.678470  0.334200  Uiso  0.007491
    O1  O  1.0000  0.946240  0.470490  0.334200  Uiso  0.007491
    O1  O  1.0000  0.800580  0.516270  0.334200  Uiso  0.007491
    O1  O  1.0000  0.654920  0.562060  0.334200  Uiso  0.007491
    O1  O  1.0000  0.509260  0.607850  0.334200  Uiso  0.007491
    O1  O  1.0000  0.363600  0.653630  0.334200  Uiso  0.007491
    O1  O  1.0000  0.217930  0.699420  0.334200  Uiso  0.007491
    O1  O  1.0000  0.072270  0.745200  0.334200  Uiso  0.007491
    O1  O  1.0000  0.994800  0.537220  0.334200  Uiso  0.007491
    O1  O  1.0000  0.849140  0.583010  0.334200  Uiso  0.007491
    O1  O  1.0000  0.703470  0.628790  0.334200  Uiso  0.007491
    O1  O  1.0000  0.557810  0.674580  0.334200  Uiso  0.007491
    O1  O  1.0000  0.412150  0.720360  0.334200  Uiso  0.007491
    O1  O  1.0000  0.266490  0.766150  0.334200  Uiso  0.007491
    O1  O  1.0000  0.120830  0.811940  0.334200  Uiso  0.007491
    O1  O  1.0000  0.897690  0.649740  0.334200  Uiso  0.007491
    O1  O  1.0000  0.752030  0.695520  0.334200  Uiso  0.007491
    O1  O  1.0000  0.606370  0.741310  0.334200  Uiso  0.007491
    O1  O  1.0000  0.460700  0.787100  0.334200  Uiso  0.007491
    O1  O  1.0000  0.315040  0.832880  0.334200  Uiso  0.007491
    O1  O  1.0000  0.169380  0.878670  0.334200  Uiso  0.007491
    O1  O  1.0000  0.023720  0.924450  0.334200  Uiso  0.007491
    O1  O  1.0000  0.946240  0.716470  0.334200  Uiso  0.007491
    O1  O  1.0000  0.800580  0.762260  0.334200  Uiso  0.007491
    O1  O  1.0000  0.654920  0.808040  0.334200  Uiso  0.007491
    O1  O  1.0000  0.509260  0.853830  0.334200  Uiso  0.007491
    O1  O  1.0000  0.363600  0.899610  0.334200  Uiso  0.007491
    O1  O  1.0000  0.217930  0.945400  0.334200  Uiso  0.007491
    O1  O  1.0000  0.072270  0.991190  0.334200  Uiso  0.007491
    O1  O  1.0000  0.994800  0.783200  0.334200  Uiso  0.007491
    O1  O  1.0000  0.849140  0.828990  0.334200  Uiso  0.007491
    O1  O  1.0000  0.703470  0.874770  0.334200  Uiso  0.007491
    O1  O  1.0000  0.557810  0.920560  0.334200  Uiso  0.007491
    O1  O  1.0000  0.412150  0.966350  0.334200  Uiso  0.007491
    O1  O  1.0000  0.897690  0.895720  0.334200  Uiso  0.007491
    O1  O  1.0000  0.752030  0.941510  0.334200  Uiso  0.007491
    O1  O  1.0000  0.606370  0.987290  0.334200  Uiso  0.007491
    O1  O  1.0000  0.946240  0.962450  0.334200  Uiso  0.007491
    O1  O  1.0000  0.291830  0.000390  0.487700  Uiso  0.014236
    O1  O  1.0000  0.146170  0.046170  0.487700  Uiso  0.014236
    O1  O  1.0000  0.000510  0.091960  0.487700  Uiso  0.014236
    O1  O  1.0000  0.486050  0.021330  0.487700  Uiso  0.014236
    O1  O  1.0000  0.340390  0.067120  0.487700  Uiso  0.014236
    O1  O  1.0000  0.194730  0.112910  0.487700  Uiso  0.014236
    O1  O  1.0000  0.049060  0.158690  0.487700  Uiso  0.014236
    O1  O  1.0000  0.680270  0.042280  0.487700  Uiso  0.014236
    O1  O  1.0000  0.534600  0.088070  0.487700  Uiso  0.014236
    O1  O  1.0000  0.388940  0.133850  0.487700  Uiso  0.014236
    O1  O  1.0000  0.243280  0.179640  0.487700  Uiso  0.014236
    O1  O  1.0000  0.097620  0.225420  0.487700  Uiso  0.014236
    O1  O  1.0000  0.874480  0.063230  0.487700  Uiso  0.014236
    O1  O  1.0000  0.728820  0.109010  0.487700  Uiso  0.014236
    O1  O  1.0000  0.583160  0.154800  0.487700  Uiso  0.014236
    O1  O  1.0000  0.437500  0.200580  0.487700  Uiso  0.014236
    O1  O  1.0000  0.291830  0.246370  0.487700  Uiso  0.014236
    O1  O  1.0000  0.146170  0.292160  0.487700  Uiso  0.014236
    O1  O  1.0000  0.000510  0.337940  0.487700  Uiso  0.014236
    O1  O  1.0000  0.923030  0.129960  0.487700  Uiso  0.014236
    O1  O  1.0000  0.777370  0.175740  0.487700  Uiso  0.014236
    O1  O  1.0000  0.631710  0.221530  0.487700  Uiso  0.014236
    O1  O  1.0000  0.486050  0.267320  0.487700  Uiso  0.014236
    O1  O  1.0000  0.340390  0.313100  0.487700  Uiso  0.014236
    O1  O  1.0000  0.194730  0.358890  0.487700  Uiso  0.014236
    O1  O  1.0000  0.049060  0.404670  0.487700  Uiso  0.014236
    O1  O  1.0000  0.971590  0.196690  0.487700  Uiso  0.014236
    O1  O  1.0000  0.825930  0.242480  0.487700  Uiso  0.014236
    O1  O  1.0000  0.680270  0.288260  0.487700  Uiso  0.014236
    O1  O  1.0000  0.534600  0.334050  0.487700  Uiso  0.014236
    O1  O  1.0000  0.388940  0.379830  0.487700  Uiso  0.014236
    O1  O  1.0000  0.243280  0.425620  0.487700  Uiso  0.014236
    O1  O  1.0000  0.097620  0.471410  0.487700  Uiso  0.014236
    O1  O  1.0000  0.874480  0.309210  0.487700  Uiso  0.014236
    O1  O  1.0000  0.728820  0.354990  0.487700  Uiso  0.014236
    O1  O  1.0000  0.583160  0.400780  0.487700  Uiso  0.014236
    O1  O  1.0000  0.437500  0.446570  0.487700  Uiso  0.014236
    O1  O  1.0000  0.291830  0.492350  0.487700  Uiso  0.014236
    O1  O  1.0000  0.146170  0.538140  0.487700  Uiso  0.014236
    O1  O  1.0000  0.000510  0.583920  0.487700  Uiso  0.014236
    O1  O  1.0000  0.923030  0.375940  0.487700  Uiso  0.014236
    O1  O  1.0000  0.777370  0.421730  0.487700  Uiso  0.014236
    O1  O  1.0000  0.631710  0.467510  0.487700  Uiso  0.014236
    O1  O  1.0000  0.486050  0.513300  0.487700  Uiso  0.014236
    O1  O  1.0000  0.340390  0.559080  0.487700  Uiso  0.014236
    O1  O  1.0000  0.194730  0.604870  0.487700  Uiso  0.014236
    O1  O  1.0000  0.049060  0.650660  0.487700  Uiso  0.014236
    O1  O  1.0000  0.971590  0.442670  0.487700  Uiso  0.014236
    O1  O  1.0000  0.825930  0.488460  0.487700  Uiso  0.014236
    O1  O  1.0000  0.680270  0.534240  0.487700  Uiso  0.014236
    O1  O  1.0000  0.534600  0.580030  0.487700  Uiso  0.014236
    O1  O  1.0000  0.388940  0.625820  0.487700  Uiso  0.014236
    O1  O  1.0000  0.243280  0.671600  0.487700  Uiso  0.014236
    O1  O  1.0000  0.097620  0.717390  0.487700  Uiso  0.014236
    O1  O  1.0000  0.874480  0.555190  0.487700  Uiso  0.014236
    O1  O  1.0000  0.728820  0.600980  0.487700  Uiso  0.014236
    O1  O  1.0000  0.583160  0.646760  0.487700  Uiso  0.014236
    O1  O  1.0000  0.437500  0.692550  0.487700  Uiso  0.014236
    O1  O  1.0000  0.291830  0.738330  0.487700  Uiso  0.014236
    O1  O  1.0000  0.146170  0.784120  0.487700  Uiso  0.014236
    O1  O  1.0000  0.000510  0.829910  0.487700  Uiso  0.014236
    O1  O  1.0000  0.923030  0.621920  0.487700  Uiso  0.014236
    O1  O  1.0000  0.777370  0.667710  0.487700  Uiso  0.014236
    O1  O  1.0000  0.631710  0.713490  0.487700  Uiso  0.014236
    O1  O  1.0000  0.486050  0.759280  0.487700  Uiso  0.014236
    O1  O  1.0000  0.340390  0.805070  0.487700  Uiso  0.014236
    O1  O  1.0000  0.194730  0.850850  0.487700  Uiso  0.014236
    O1  O  1.0000  0.049060  0.896640  0.487700  Uiso  0.014236
    O1  O  1.0000  0.971590  0.688650  0.487700  Uiso  0.014236
    O1  O  1.0000  0.825930  0.734440  0.487700  Uiso  0.014236
    O1  O  1.0000  0.680270  0.780230  0.487700  Uiso  0.014236
    O1  O  1.0000  0.534600  0.826010  0.487700  Uiso  0.014236
    O1  O  1.0000  0.388940  0.871800  0.487700  Uiso  0.014236
    O1  O  1.0000  0.243280  0.917580  0.487700  Uiso  0.014236
    O1  O  1.0000  0.097620  0.963370  0.487700  Uiso  0.014236
    O1  O  1.0000  0.874480  0.801170  0.487700  Uiso  0.014236
    O1  O  1.0000  0.728820  0.846960  0.487700  Uiso  0.014236
    O1  O  1.0000  0.583160  0.892740  0.487700  Uiso  0.014236
    O1  O  1.0000  0.437500  0.938530  0.487700  Uiso  0.014236
    O1  O  1.0000  0.291830  0.984310  0.487700  Uiso  0.014236
    O1  O  1.0000  0.923030  0.867900  0.487700  Uiso  0.014236
    O1  O  1.0000  0.777370  0.913690  0.487700  Uiso  0.014236
    O1  O  1.0000  0.631710  0.959470  0.487700  Uiso  0.014236
    O1  O  1.0000  0.971590  0.934630  0.487700  Uiso  0.014236
    O1  O  1.0000  0.825930  0.980420  0.487700  Uiso  0.014236
    O1  O  1.0000  0.137830  0.040530  0.208700  Uiso  0.011494
    O1  O  1.0000  0.477700  0.015690  0.208700  Uiso  0.011494
    O1  O  1.0000  0.332040  0.061480  0.208700  Uiso  0.011494
    O1  O  1.0000  0.186380  0.107260  0.208700  Uiso  0.011494
    O1  O  1.0000  0.040720  0.153050  0.208700  Uiso  0.011494
    O1  O  1.0000  0.671920  0.036640  0.208700  Uiso  0.011494
    O1  O  1.0000  0.526260  0.082420  0.208700  Uiso  0.011494
    O1  O  1.0000  0.380590  0.128210  0.208700  Uiso  0.011494
    O1  O  1.0000  0.234930  0.174000  0.208700  Uiso  0.011494
    O1  O  1.0000  0.089270  0.219780  0.208700  Uiso  0.011494
    O1  O  1.0000  0.866130  0.057580  0.208700  Uiso  0.011494
    O1  O  1.0000  0.720470  0.103370  0.208700  Uiso  0.011494
    O1  O  1.0000  0.574810  0.149160  0.208700  Uiso  0.011494
    O1  O  1.0000  0.429150  0.194940  0.208700  Uiso  0.011494
    O1  O  1.0000  0.283490  0.240730  0.208700  Uiso  0.011494
    O1  O  1.0000  0.137830  0.286510  0.208700  Uiso  0.011494
    O1  O  1.0000  0.914690  0.124320  0.208700  Uiso  0.011494
    O1  O  1.0000  0.769030  0.170100  0.208700  Uiso  0.011494
    O1  O  1.0000  0.623360  0.215890  0.208700  Uiso  0.011494
    O1  O  1.0000  0.477700  0.261670  0.208700  Uiso  0.011494
    O1  O  1.0000  0.332040  0.307460  0.208700  Uiso  0.011494
    O1  O  1.0000  0.186380  0.353250  0.208700  Uiso  0.011494
    O1  O  1.0000  0.040720  0.399030  0.208700  Uiso  0.011494
    O1  O  1.0000  0.963240  0.191050  0.208700  Uiso  0.011494
    O1  O  1.0000  0.817580  0.236830  0.208700  Uiso  0.011494
    O1  O  1.0000  0.671920  0.282620  0.208700  Uiso  0.011494
    O1  O  1.0000  0.526260  0.328410  0.208700  Uiso  0.011494
    O1  O  1.0000  0.380590  0.374190  0.208700  Uiso  0.011494
    O1  O  1.0000  0.234930  0.419980  0.208700  Uiso  0.011494
    O1  O  1.0000  0.089270  0.465760  0.208700  Uiso  0.011494
    O1  O  1.0000  0.866130  0.303570  0.208700  Uiso  0.011494
    O1  O  1.0000  0.720470  0.349350  0.208700  Uiso  0.011494
    O1  O  1.0000  0.574810  0.395140  0.208700  Uiso  0.011494
    O1  O  1.0000  0.429150  0.440920  0.208700  Uiso  0.011494
    O1  O  1.0000  0.283490  0.486710  0.208700  Uiso  0.011494
    O1  O  1.0000  0.137830  0.532500  0.208700  Uiso  0.011494
    O1  O  1.0000  0.914690  0.370300  0.208700  Uiso  0.011494
    O1  O  1.0000  0.769030  0.416080  0.208700  Uiso  0.011494
    O1  O  1.0000  0.623360  0.461870  0.208700  Uiso  0.011494
    O1  O  1.0000  0.477700  0.507660  0.208700  Uiso  0.011494
    O1  O  1.0000  0.332040  0.553440  0.208700  Uiso  0.011494
    O1  O  1.0000  0.186380  0.599230  0.208700  Uiso  0.011494
    O1  O  1.0000  0.040720  0.645010  0.208700  Uiso  0.011494
    O1  O  1.0000  0.963240  0.437030  0.208700  Uiso  0.011494
    O1  O  1.0000  0.817580  0.482820  0.208700  Uiso  0.011494
    O1  O  1.0000  0.671920  0.528600  0.208700  Uiso  0.011494
    O1  O  1.0000  0.526260  0.574390  0.208700  Uiso  0.011494
    O1  O  1.0000  0.380590  0.620170  0.208700  Uiso  0.011494
    O1  O  1.0000  0.234930  0.665960  0.208700  Uiso  0.011494
    O1  O  1.0000  0.089270  0.711750  0.208700  Uiso  0.011494
    O1  O  1.0000  0.866130  0.549550  0.208700  Uiso  0.011494
    O1  O  1.0000  0.720470  0.595330  0.208700  Uiso  0.011494
    O1  O  1.0000  0.574810  0.641120  0.208700  Uiso  0.011494
    O1  O  1.0000  0.429150  0.686910  0.208700  Uiso  0.011494
    O1  O  1.0000  0.283490  0.732690  0.208700  Uiso  0.011494
    O1  O  1.0000  0.137830  0.778480  0.208700  Uiso  0.011494
    O1  O  1.0000  0.914690  0.616280  0.208700  Uiso  0.011494
    O1  O  1.0000  0.769030  0.662070  0.208700  Uiso  0.011494
    O1  O  1.0000  0.623360  0.707850  0.208700  Uiso  0.011494
    O1  O  1.0000  0.477700  0.753640  0.208700  Uiso  0.011494
    O1  O  1.0000  0.332040  0.799420  0.208700  Uiso  0.011494
    O1  O  1.0000  0.186380  0.845210  0.208700  Uiso  0.011494
    O1  O  1.0000  0.040720  0.891000  0.208700  Uiso  0.011494
    O1  O  1.0000  0.963240  0.683010  0.208700  Uiso  0.011494
    O1  O  1.0000  0.817580  0.728800  0.208700  Uiso  0.011494
    O1  O  1.0000  0.671920  0.774580  0.208700  Uiso  0.011494
    O1  O  1.0000  0.526260  0.820370  0.208700  Uiso  0.011494
    O1  O  1.0000  0.380590  0.866160  0.208700  Uiso  0.011494
    O1  O  1.0000  0.234930  0.911940  0.208700  Uiso  0.011494
    O1  O  1.0000  0.089270  0.957730  0.208700  Uiso  0.011494
    O1  O  1.0000  0.866130  0.795530  0.208700  Uiso  0.011494
    O1  O  1.0000  0.720470  0.841320  0.208700  Uiso  0.011494
    O1  O  1.0000  0.574810  0.887100  0.208700  Uiso  0.011494
    O1  O  1.0000  0.429150  0.932890  0.208700  Uiso  0.011494
    O1  O  1.0000  0.283490  0.978670  0.208700  Uiso  0.011494
    O1  O  1.0000  0.914690  0.862260  0.208700  Uiso  0.011494
    O1  O  1.0000  0.769030  0.908050  0.208700  Uiso  0.011494
    O1  O  1.0000  0.623360  0.953830  0.208700  Uiso  0.011494
    O1  O  1.0000  0.477700  0.999620  0.208700  Uiso  0.011494
    O1  O  1.0000  0.963240  0.928990  0.208700  Uiso  0.011494
    O1  O  1.0000  0.817580  0.974780  0.208700  Uiso  0.011494
    Mg1  Mg  0.7200  0.144710  0.014600  0.845200  Uiso  0.007781
    Mg1  Mg  0.7200  0.338930  0.035540  0.845200  Uiso  0.007781
    Mg1  Mg  0.7200  0.193260  0.081330  0.845200  Uiso  0.007781
    Mg1  Mg  0.7200  0.047600  0.127120  0.845200  Uiso  0.007781
    Mg1  Mg  0.7200  0.678800  0.010700  0.845200  Uiso  0.007781
    Mg1  Mg  0.7200  0.533140  0.056490  0.845200  Uiso  0.007781
    Mg1  Mg  0.7200  0.387480  0.102280  0.845200  Uiso  0.007781
    Mg1  Mg  0.7200  0.241820  0.148060  0.845200  Uiso  0.007781
    Mg1  Mg  0.7200  0.096160  0.193850  0.845200  Uiso  0.007781
    Mg1  Mg  0.7200  0.873020  0.031650  0.845200  Uiso  0.007781
    Mg1  Mg  0.7200  0.727360  0.077440  0.845200  Uiso  0.007781
    Mg1  Mg  0.7200  0.581700  0.123220  0.845200  Uiso  0.007781
    Mg1  Mg  0.7200  0.436030  0.169010  0.845200  Uiso  0.007781
    Mg1  Mg  0.7200  0.290370  0.214790  0.845200  Uiso  0.007781
    Mg1  Mg  0.7200  0.144710  0.260580  0.845200  Uiso  0.007781
    Mg1  Mg  0.7200  0.921570  0.098380  0.845200  Uiso  0.007781
    Mg1  Mg  0.7200  0.775910  0.144170  0.845200  Uiso  0.007781
    Mg1  Mg  0.7200  0.630250  0.189950  0.845200  Uiso  0.007781
    Mg1  Mg  0.7200  0.484590  0.235740  0.845200  Uiso  0.007781
    Mg1  Mg  0.7200  0.338930  0.281530  0.845200  Uiso  0.007781
    Mg1  Mg  0.7200  0.193260  0.327310  0.845200  Uiso  0.007781
    Mg1  Mg  0.7200  0.047600  0.373100  0.845200  Uiso  0.007781
    Mg1  Mg  0.7200  0.970130  0.165110  0.845200  Uiso  0.007781
    Mg1  Mg  0.7200  0.824470  0.210900  0.845200  Uiso  0.007781
    Mg1  Mg  0.7200  0.678800  0.256690  0.845200  Uiso  0.007781
    Mg1  Mg  0.7200  0.533140  0.302470  0.845200  Uiso  0.007781
    Mg1  Mg  0.7200  0.387480  0.348260  0.845200  Uiso  0.007781
    Mg1  Mg  0.7200  0.241820  0.394040  0.845200  Uiso  0.007781
    Mg1  Mg  0.7200  0.096160  0.439830  0.845200  Uiso  0.007781
    Mg1  Mg  0.7200  0.873020  0.277630  0.845200  Uiso  0.007781
    Mg1  Mg  0.7200  0.727360  0.323420  0.845200  Uiso  0.007781
    Mg1  Mg  0.7200  0.581700  0.369200  0.845200  Uiso  0.007781
    Mg1  Mg  0.7200  0.436030  0.414990  0.845200  Uiso  0.007781
    Mg1  Mg  0.7200  0.290370  0.460780  0.845200  Uiso  0.007781
    Mg1  Mg  0.7200  0.144710  0.506560  0.845200  Uiso  0.007781
    Mg1  Mg  0.7200  0.921570  0.344360  0.845200  Uiso  0.007781
    Mg1  Mg  0.7200  0.775910  0.390150  0.845200  Uiso  0.007781
    Mg1  Mg  0.7200  0.630250  0.435940  0.845200  Uiso  0.007781
    Mg1  Mg  0.7200  0.484590  0.481720  0.845200  Uiso  0.007781
    Mg1  Mg  0.7200  0.338930  0.527510  0.845200  Uiso  0.007781
    Mg1  Mg  0.7200  0.193260  0.573290  0.845200  Uiso  0.007781
    Mg1  Mg  0.7200  0.047600  0.619080  0.845200  Uiso  0.007781
    Mg1  Mg  0.7200  0.970130  0.411100  0.845200  Uiso  0.007781
    Mg1  Mg  0.7200  0.824470  0.456880  0.845200  Uiso  0.007781
    Mg1  Mg  0.7200  0.678800  0.502670  0.845200  Uiso  0.007781
    Mg1  Mg  0.7200  0.533140  0.548450  0.845200  Uiso  0.007781
    Mg1  Mg  0.7200  0.387480  0.594240  0.845200  Uiso  0.007781
    Mg1  Mg  0.7200  0.241820  0.640030  0.845200  Uiso  0.007781
    Mg1  Mg  0.7200  0.096160  0.685810  0.845200  Uiso  0.007781
    Mg1  Mg  0.7200  0.873020  0.523610  0.845200  Uiso  0.007781
    Mg1  Mg  0.7200  0.727360  0.569400  0.845200  Uiso  0.007781
    Mg1  Mg  0.7200  0.581700  0.615190  0.845200  Uiso  0.007781
    Mg1  Mg  0.7200  0.436030  0.660970  0.845200  Uiso  0.007781
    Mg1  Mg  0.7200  0.290370  0.706760  0.845200  Uiso  0.007781
    Mg1  Mg  0.7200  0.144710  0.752540  0.845200  Uiso  0.007781
    Mg1  Mg  0.7200  0.921570  0.590350  0.845200  Uiso  0.007781
    Mg1  Mg  0.7200  0.775910  0.636130  0.845200  Uiso  0.007781
    Mg1  Mg  0.7200  0.630250  0.681920  0.845200  Uiso  0.007781
    Mg1  Mg  0.7200  0.484590  0.727700  0.845200  Uiso  0.007781
    Mg1  Mg  0.7200  0.338930  0.773490  0.845200  Uiso  0.007781
    Mg1  Mg  0.7200  0.193260  0.819280  0.845200  Uiso  0.007781
    Mg1  Mg  0.7200  0.047600  0.865060  0.845200  Uiso  0.007781
    Mg1  Mg  0.7200  0.970130  0.657080  0.845200  Uiso  0.007781
    Mg1  Mg  0.7200  0.824470  0.702860  0.845200  Uiso  0.007781
    Mg1  Mg  0.7200  0.678800  0.748650  0.845200  Uiso  0.007781
    Mg1  Mg  0.7200  0.533140  0.794440  0.845200  Uiso  0.007781
    Mg1  Mg  0.7200  0.387480  0.840220  0.845200  Uiso  0.007781
    Mg1  Mg  0.7200  0.241820  0.886010  0.845200  Uiso  0.007781
    Mg1  Mg  0.7200  0.096160  0.931790  0.845200  Uiso  0.007781
    Mg1  Mg  0.7200  0.873020  0.769600  0.845200  Uiso  0.007781
    Mg1  Mg  0.7200  0.727360  0.815380  0.845200  Uiso  0.007781
    Mg1  Mg  0.7200  0.581700  0.861170  0.845200  Uiso  0.007781
    Mg1  Mg  0.7200  0.436030  0.906950  0.845200  Uiso  0.007781
    Mg1  Mg  0.7200  0.290370  0.952740  0.845200  Uiso  0.007781
    Mg1  Mg  0.7200  0.144710  0.998530  0.845200  Uiso  0.007781
    Mg1  Mg  0.7200  0.921570  0.836330  0.845200  Uiso  0.007781
    Mg1  Mg  0.7200  0.775910  0.882110  0.845200  Uiso  0.007781
    Mg1  Mg  0.7200  0.630250  0.927900  0.845200  Uiso  0.007781
    Mg1  Mg  0.7200  0.484590  0.973690  0.845200  Uiso  0.007781
    Mg1  Mg  0.7200  0.970130  0.903060  0.845200  Uiso  0.007781
    Mg1  Mg  0.7200  0.824470  0.948850  0.845200  Uiso  0.007781
    Mg1  Mg  0.7200  0.678800  0.994630  0.845200  Uiso  0.007781
    Fe1  Fe  0.2800  0.144710  0.014600  0.845200  Uiso  0.007781
    Fe1  Fe  0.2800  0.338930  0.035540  0.845200  Uiso  0.007781
    Fe1  Fe  0.2800  0.193260  0.081330  0.845200  Uiso  0.007781
    Fe1  Fe  0.2800  0.047600  0.127120  0.845200  Uiso  0.007781
    Fe1  Fe  0.2800  0.678800  0.010700  0.845200  Uiso  0.007781
    Fe1  Fe  0.2800  0.533140  0.056490  0.845200  Uiso  0.007781
    Fe1  Fe  0.2800  0.387480  0.102280  0.845200  Uiso  0.007781
    Fe1  Fe  0.2800  0.241820  0.148060  0.845200  Uiso  0.007781
    Fe1  Fe  0.2800  0.096160  0.193850  0.845200  Uiso  0.007781
    Fe1  Fe  0.2800  0.873020  0.031650  0.845200  Uiso  0.007781
    Fe1  Fe  0.2800  0.727360  0.077440  0.845200  Uiso  0.007781
    Fe1  Fe  0.2800  0.581700  0.123220  0.845200  Uiso  0.007781
    Fe1  Fe  0.2800  0.436030  0.169010  0.845200  Uiso  0.007781
    Fe1  Fe  0.2800  0.290370  0.214790  0.845200  Uiso  0.007781
    Fe1  Fe  0.2800  0.144710  0.260580  0.845200  Uiso  0.007781
    Fe1  Fe  0.2800  0.921570  0.098380  0.845200  Uiso  0.007781
    Fe1  Fe  0.2800  0.775910  0.144170  0.845200  Uiso  0.007781
    Fe1  Fe  0.2800  0.630250  0.189950  0.845200  Uiso  0.007781
    Fe1  Fe  0.2800  0.484590  0.235740  0.845200  Uiso  0.007781
    Fe1  Fe  0.2800  0.338930  0.281530  0.845200  Uiso  0.007781
    Fe1  Fe  0.2800  0.193260  0.327310  0.845200  Uiso  0.007781
    Fe1  Fe  0.2800  0.047600  0.373100  0.845200  Uiso  0.007781
    Fe1  Fe  0.2800  0.970130  0.165110  0.845200  Uiso  0.007781
    Fe1  Fe  0.2800  0.824470  0.210900  0.845200  Uiso  0.007781
    Fe1  Fe  0.2800  0.678800  0.256690  0.845200  Uiso  0.007781
    Fe1  Fe  0.2800  0.533140  0.302470  0.845200  Uiso  0.007781
    Fe1  Fe  0.2800  0.387480  0.348260  0.845200  Uiso  0.007781
    Fe1  Fe  0.2800  0.241820  0.394040  0.845200  Uiso  0.007781
    Fe1  Fe  0.2800  0.096160  0.439830  0.845200  Uiso  0.007781
    Fe1  Fe  0.2800  0.873020  0.277630  0.845200  Uiso  0.007781
    Fe1  Fe  0.2800  0.727360  0.323420  0.845200  Uiso  0.007781
    Fe1  Fe  0.2800  0.581700  0.369200  0.845200  Uiso  0.007781
    Fe1  Fe  0.2800  0.436030  0.414990  0.845200  Uiso  0.007781
    Fe1  Fe  0.2800  0.290370  0.460780  0.845200  Uiso  0.007781
    Fe1  Fe  0.2800  0.144710  0.506560  0.845200  Uiso  0.007781
    Fe1  Fe  0.2800  0.921570  0.344360  0.845200  Uiso  0.007781
    Fe1  Fe  0.2800  0.775910  0.390150  0.845200  Uiso  0.007781
    Fe1  Fe  0.2800  0.630250  0.435940  0.845200  Uiso  0.007781
    Fe1  Fe  0.2800  0.484590  0.481720  0.845200  Uiso  0.007781
    Fe1  Fe  0.2800  0.338930  0.527510  0.845200  Uiso  0.007781
    Fe1  Fe  0.2800  0.193260  0.573290  0.845200  Uiso  0.007781
    Fe1  Fe  0.2800  0.047600  0.619080  0.845200  Uiso  0.007781
    Fe1  Fe  0.2800  0.970130  0.411100  0.845200  Uiso  0.007781
    Fe1  Fe  0.2800  0.824470  0.456880  0.845200  Uiso  0.007781
    Fe1  Fe  0.2800  0.678800  0.502670  0.845200  Uiso  0.007781
    Fe1  Fe  0.2800  0.533140  0.548450  0.845200  Uiso  0.007781
    Fe1  Fe  0.2800  0.387480  0.594240  0.845200  Uiso  0.007781
    Fe1  Fe  0.2800  0.241820  0.640030  0.845200  Uiso  0.007781
    Fe1  Fe  0.2800  0.096160  0.685810  0.845200  Uiso  0.007781
    Fe1  Fe  0.2800  0.873020  0.523610  0.845200  Uiso  0.007781
    Fe1  Fe  0.2800  0.727360  0.569400  0.845200  Uiso  0.007781
    Fe1  Fe  0.2800  0.581700  0.615190  0.845200  Uiso  0.007781
    Fe1  Fe  0.2800  0.436030  0.660970  0.845200  Uiso  0.007781
    Fe1  Fe  0.2800  0.290370  0.706760  0.845200  Uiso  0.007781
    Fe1  Fe  0.2800  0.144710  0.752540  0.845200  Uiso  0.007781
    Fe1  Fe  0.2800  0.921570  0.590350  0.845200  Uiso  0.007781
    Fe1  Fe  0.2800  0.775910  0.636130  0.845200  Uiso  0.007781
    Fe1  Fe  0.2800  0.630250  0.681920  0.845200  Uiso  0.007781
    Fe1  Fe  0.2800  0.484590  0.727700  0.845200  Uiso  0.007781
    Fe1  Fe  0.2800  0.338930  0.773490  0.845200  Uiso  0.007781
    Fe1  Fe  0.2800  0.193260  0.819280  0.845200  Uiso  0.007781
    Fe1  Fe  0.2800  0.047600  0.865060  0.845200  Uiso  0.007781
    Fe1  Fe  0.2800  0.970130  0.657080  0.845200  Uiso  0.007781
    Fe1  Fe  0.2800  0.824470  0.702860  0.845200  Uiso  0.007781
    Fe1  Fe  0.2800  0.678800  0.748650  0.845200  Uiso  0.007781
    Fe1  Fe  0.2800  0.533140  0.794440  0.845200  Uiso  0.007781
    Fe1  Fe  0.2800  0.387480  0.840220  0.845200  Uiso  0.007781
    Fe1  Fe  0.2800  0.241820  0.886010  0.845200  Uiso  0.007781
    Fe1  Fe  0.2800  0.096160  0.931790  0.845200  Uiso  0.007781
    Fe1  Fe  0.2800  0.873020  0.769600  0.845200  Uiso  0.007781
    Fe1  Fe  0.2800  0.727360  0.815380  0.845200  Uiso  0.007781
    Fe1  Fe  0.2800  0.581700  0.861170  0.845200  Uiso  0.007781
    Fe1  Fe  0.2800  0.436030  0.906950  0.845200  Uiso  0.007781
    Fe1  Fe  0.2800  0.290370  0.952740  0.845200  Uiso  0.007781
    Fe1  Fe  0.2800  0.144710  0.998530  0.845200  Uiso  0.007781
    Fe1  Fe  0.2800  0.921570  0.836330  0.845200  Uiso  0.007781
    Fe1  Fe  0.2800  0.775910  0.882110  0.845200  Uiso  0.007781
    Fe1  Fe  0.2800  0.630250  0.927900  0.845200  Uiso  0.007781
    Fe1  Fe  0.2800  0.484590  0.973690  0.845200  Uiso  0.007781
    Fe1  Fe  0.2800  0.970130  0.903060  0.845200  Uiso  0.007781
    Fe1  Fe  0.2800  0.824470  0.948850  0.845200  Uiso  0.007781
    Fe1  Fe  0.2800  0.678800  0.994630  0.845200  Uiso  0.007781
    Fe1  Fe  0.7600  0.143800  0.014720  0.481700  Uiso  0.015458
    Fe1  Fe  0.7600  0.338010  0.035670  0.481700  Uiso  0.015458
    Fe1  Fe  0.7600  0.192350  0.081450  0.481700  Uiso  0.015458
    Fe1  Fe  0.7600  0.046690  0.127240  0.481700  Uiso  0.015458
    Fe1  Fe  0.7600  0.677890  0.010830  0.481700  Uiso  0.015458
    Fe1  Fe  0.7600  0.532230  0.056610  0.481700  Uiso  0.015458
    Fe1  Fe  0.7600  0.386570  0.102400  0.481700  Uiso  0.015458
    Fe1  Fe  0.7600  0.240910  0.148190  0.481700  Uiso  0.015458
    Fe1  Fe  0.7600  0.095240  0.193970  0.481700  Uiso  0.015458
    Fe1  Fe  0.7600  0.872110  0.031770  0.481700  Uiso  0.015458
    Fe1  Fe  0.7600  0.726440  0.077560  0.481700  Uiso  0.015458
    Fe1  Fe  0.7600  0.580780  0.123350  0.481700  Uiso  0.015458
    Fe1  Fe  0.7600  0.435120  0.169130  0.481700  Uiso  0.015458
    Fe1  Fe  0.7600  0.289460  0.214920  0.481700  Uiso  0.015458
    Fe1  Fe  0.7600  0.143800  0.260700  0.481700  Uiso  0.015458
    Fe1  Fe  0.7600  0.920660  0.098510  0.481700  Uiso  0.015458
    Fe1  Fe  0.7600  0.775000  0.144290  0.481700  Uiso  0.015458
    Fe1  Fe  0.7600  0.629340  0.190080  0.481700  Uiso  0.015458
    Fe1  Fe  0.7600  0.483680  0.235860  0.481700  Uiso  0.015458
    Fe1  Fe  0.7600  0.338010  0.281650  0.481700  Uiso  0.015458
    Fe1  Fe  0.7600  0.192350  0.327430  0.481700  Uiso  0.015458
    Fe1  Fe  0.7600  0.046690  0.373220  0.481700  Uiso  0.015458
    Fe1  Fe  0.7600  0.969210  0.165240  0.481700  Uiso  0.015458
    Fe1  Fe  0.7600  0.823550  0.211020  0.481700  Uiso  0.015458
    Fe1  Fe  0.7600  0.677890  0.256810  0.481700  Uiso  0.015458
    Fe1  Fe  0.7600  0.532230  0.302590  0.481700  Uiso  0.015458
    Fe1  Fe  0.7600  0.386570  0.348380  0.481700  Uiso  0.015458
    Fe1  Fe  0.7600  0.240910  0.394170  0.481700  Uiso  0.015458
    Fe1  Fe  0.7600  0.095240  0.439950  0.481700  Uiso  0.015458
    Fe1  Fe  0.7600  0.872110  0.277750  0.481700  Uiso  0.015458
    Fe1  Fe  0.7600  0.726440  0.323540  0.481700  Uiso  0.015458
    Fe1  Fe  0.7600  0.580780  0.369330  0.481700  Uiso  0.015458
    Fe1  Fe  0.7600  0.435120  0.415110  0.481700  Uiso  0.015458
    Fe1  Fe  0.7600  0.289460  0.460900  0.481700  Uiso  0.015458
    Fe1  Fe  0.7600  0.143800  0.506680  0.481700  Uiso  0.015458
    Fe1  Fe  0.7600  0.920660  0.344490  0.481700  Uiso  0.015458
    Fe1  Fe  0.7600  0.775000  0.390270  0.481700  Uiso  0.015458
    Fe1  Fe  0.7600  0.629340  0.436060  0.481700  Uiso  0.015458
    Fe1  Fe  0.7600  0.483680  0.481840  0.481700  Uiso  0.015458
    Fe1  Fe  0.7600  0.338010  0.527630  0.481700  Uiso  0.015458
    Fe1  Fe  0.7600  0.192350  0.573420  0.481700  Uiso  0.015458
    Fe1  Fe  0.7600  0.046690  0.619200  0.481700  Uiso  0.015458
    Fe1  Fe  0.7600  0.969210  0.411220  0.481700  Uiso  0.015458
    Fe1  Fe  0.7600  0.823550  0.457000  0.481700  Uiso  0.015458
    Fe1  Fe  0.7600  0.677890  0.502790  0.481700  Uiso  0.015458
    Fe1  Fe  0.7600  0.532230  0.548580  0.481700  Uiso  0.015458
    Fe1  Fe  0.7600  0.386570  0.594360  0.481700  Uiso  0.015458
    Fe1  Fe  0.7600  0.240910  0.640150  0.481700  Uiso  0.015458
    Fe1  Fe  0.7600  0.095240  0.685930  0.481700  Uiso  0.015458
    Fe1  Fe  0.7600  0.872110  0.523740  0.481700  Uiso  0.015458
    Fe1  Fe  0.7600  0.726440  0.569520  0.481700  Uiso  0.015458
    Fe1  Fe  0.7600  0.580780  0.615310  0.481700  Uiso  0.015458
    Fe1  Fe  0.7600  0.435120  0.661090  0.481700  Uiso  0.015458
    Fe1  Fe  0.7600  0.289460  0.706880  0.481700  Uiso  0.015458
    Fe1  Fe  0.7600  0.143800  0.752670  0.481700  Uiso  0.015458
    Fe1  Fe  0.7600  0.920660  0.590470  0.481700  Uiso  0.015458
    Fe1  Fe  0.7600  0.775000  0.636250  0.481700  Uiso  0.015458
    Fe1  Fe  0.7600  0.629340  0.682040  0.481700  Uiso  0.015458
    Fe1  Fe  0.7600  0.483680  0.727830  0.481700  Uiso  0.015458
    Fe1  Fe  0.7600  0.338010  0.773610  0.481700  Uiso  0.015458
    Fe1  Fe  0.7600  0.192350  0.819400  0.481700  Uiso  0.015458
    Fe1  Fe  0.7600  0.046690  0.865180  0.481700  Uiso  0.015458
    Fe1  Fe  0.7600  0.969210  0.657200  0.481700  Uiso  0.015458
    Fe1  Fe  0.7600  0.823550  0.702990  0.481700  Uiso  0.015458
    Fe1  Fe  0.7600  0.677890  0.748770  0.481700  Uiso  0.015458
    Fe1  Fe  0.7600  0.532230  0.794560  0.481700  Uiso  0.015458
    Fe1  Fe  0.7600  0.386570  0.840340  0.481700  Uiso  0.015458
    Fe1  Fe  0.7600  0.240910  0.886130  0.481700  Uiso  0.015458
    Fe1  Fe  0.7600  0.095240  0.931920  0.481700  Uiso  0.015458
    Fe1  Fe  0.7600  0.872110  0.769720  0.481700  Uiso  0.015458
    Fe1  Fe  0.7600  0.726440  0.815500  0.481700  Uiso  0.015458
    Fe1  Fe  0.7600  0.580780  0.861290  0.481700  Uiso  0.015458
    Fe1  Fe  0.7600  0.435120  0.907080  0.481700  Uiso  0.015458
    Fe1  Fe  0.7600  0.289460  0.952860  0.481700  Uiso  0.015458
    Fe1  Fe  0.7600  0.143800  0.998650  0.481700  Uiso  0.015458
    Fe1  Fe  0.7600  0.920660  0.836450  0.481700  Uiso  0.015458
    Fe1  Fe  0.7600  0.775000  0.882240  0.481700  Uiso  0.015458
    Fe1  Fe  0.7600  0.629340  0.928020  0.481700  Uiso  0.015458
    Fe1  Fe  0.7600  0.483680  0.973810  0.481700  Uiso  0.015458
    Fe1  Fe  0.7600  0.969210  0.903180  0.481700  Uiso  0.015458
    Fe1  Fe  0.7600  0.823550  0.948970  0.481700  Uiso  0.015458
    Fe1  Fe  0.7600  0.677890  0.994750  0.481700  Uiso  0.015458
    Ca1  Ca  0.1800  0.143800  0.014720  0.481700  Uiso  0.015458
    Ca1  Ca  0.1800  0.338010  0.035670  0.481700  Uiso  0.015458
    Ca1  Ca  0.1800  0.192350  0.081450  0.481700  Uiso  0.015458
    Ca1  Ca  0.1800  0.046690  0.127240  0.481700  Uiso  0.015458
    Ca1  Ca  0.1800  0.677890  0.010830  0.481700  Uiso  0.015458
    Ca1  Ca  0.1800  0.532230  0.056610  0.481700  Uiso  0.015458
    Ca1  Ca  0.1800  0.386570  0.102400  0.481700  Uiso  0.015458
    Ca1  Ca  0.1800  0.240910  0.148190  0.481700  Uiso  0.015458
    Ca1  Ca  0.1800  0.095240  0.193970  0.481700  Uiso  0.015458
    Ca1  Ca  0.1800  0.872110  0.031770  0.481700  Uiso  0.015458
    Ca1  Ca  0.1800  0.726440  0.077560  0.481700  Uiso  0.015458
    Ca1  Ca  0.1800  0.580780  0.123350  0.481700  Uiso  0.015458
    Ca1  Ca  0.1800  0.435120  0.169130  0.481700  Uiso  0.015458
    Ca1  Ca  0.1800  0.289460  0.214920  0.481700  Uiso  0.015458
    Ca1  Ca  0.1800  0.143800  0.260700  0.481700  Uiso  0.015458
    Ca1  Ca  0.1800  0.920660  0.098510  0.481700  Uiso  0.015458
    Ca1  Ca  0.1800  0.775000  0.144290  0.481700  Uiso  0.015458
    Ca1  Ca  0.1800  0.629340  0.190080  0.481700  Uiso  0.015458
    Ca1  Ca  0.1800  0.483680  0.235860  0.481700  Uiso  0.015458
    Ca1  Ca  0.1800  0.338010  0.281650  0.481700  Uiso  0.015458
    Ca1  Ca  0.1800  0.192350  0.327430  0.481700  Uiso  0.015458
    Ca1  Ca  0.1800  0.046690  0.373220  0.481700  Uiso  0.015458
    Ca1  Ca  0.1800  0.969210  0.165240  0.481700  Uiso  0.015458
    Ca1  Ca  0.1800  0.823550  0.211020  0.481700  Uiso  0.015458
    Ca1  Ca  0.1800  0.677890  0.256810  0.481700  Uiso  0.015458
    Ca1  Ca  0.1800  0.532230  0.302590  0.481700  Uiso  0.015458
    Ca1  Ca  0.1800  0.386570  0.348380  0.481700  Uiso  0.015458
    Ca1  Ca  0.1800  0.240910  0.394170  0.481700  Uiso  0.015458
    Ca1  Ca  0.1800  0.095240  0.439950  0.481700  Uiso  0.015458
    Ca1  Ca  0.1800  0.872110  0.277750  0.481700  Uiso  0.015458
    Ca1  Ca  0.1800  0.726440  0.323540  0.481700  Uiso  0.015458
    Ca1  Ca  0.1800  0.580780  0.369330  0.481700  Uiso  0.015458
    Ca1  Ca  0.1800  0.435120  0.415110  0.481700  Uiso  0.015458
    Ca1  Ca  0.1800  0.289460  0.460900  0.481700  Uiso  0.015458
    Ca1  Ca  0.1800  0.143800  0.506680  0.481700  Uiso  0.015458
    Ca1  Ca  0.1800  0.920660  0.344490  0.481700  Uiso  0.015458
    Ca1  Ca  0.1800  0.775000  0.390270  0.481700  Uiso  0.015458
    Ca1  Ca  0.1800  0.629340  0.436060  0.481700  Uiso  0.015458
    Ca1  Ca  0.1800  0.483680  0.481840  0.481700  Uiso  0.015458
    Ca1  Ca  0.1800  0.338010  0.527630  0.481700  Uiso  0.015458
    Ca1  Ca  0.1800  0.192350  0.573420  0.481700  Uiso  0.015458
    Ca1  Ca  0.1800  0.046690  0.619200  0.481700  Uiso  0.015458
    Ca1  Ca  0.1800  0.969210  0.411220  0.481700  Uiso  0.015458
    Ca1  Ca  0.1800  0.823550  0.457000  0.481700  Uiso  0.015458
    Ca1  Ca  0.1800  0.677890  0.502790  0.481700  Uiso  0.015458
    Ca1  Ca  0.1800  0.532230  0.548580  0.481700  Uiso  0.015458
    Ca1  Ca  0.1800  0.386570  0.594360  0.481700  Uiso  0.015458
    Ca1  Ca  0.1800  0.240910  0.640150  0.481700  Uiso  0.015458
    Ca1  Ca  0.1800  0.095240  0.685930  0.481700  Uiso  0.015458
    Ca1  Ca  0.1800  0.872110  0.523740  0.481700  Uiso  0.015458
    Ca1  Ca  0.1800  0.726440  0.569520  0.481700  Uiso  0.015458
    Ca1  Ca  0.1800  0.580780  0.615310  0.481700  Uiso  0.015458
    Ca1  Ca  0.1800  0.435120  0.661090  0.481700  Uiso  0.015458
    Ca1  Ca  0.1800  0.289460  0.706880  0.481700  Uiso  0.015458
    Ca1  Ca  0.1800  0.143800  0.752670  0.481700  Uiso  0.015458
    Ca1  Ca  0.1800  0.920660  0.590470  0.481700  Uiso  0.015458
    Ca1  Ca  0.1800  0.775000  0.636250  0.481700  Uiso  0.015458
    Ca1  Ca  0.1800  0.629340  0.682040  0.481700  Uiso  0.015458
    Ca1  Ca  0.1800  0.483680  0.727830  0.481700  Uiso  0.015458
    Ca1  Ca  0.1800  0.338010  0.773610  0.481700  Uiso  0.015458
    Ca1  Ca  0.1800  0.192350  0.819400  0.481700  Uiso  0.015458
    Ca1  Ca  0.1800  0.046690  0.865180  0.481700  Uiso  0.015458
    Ca1  Ca  0.1800  0.969210  0.657200  0.481700  Uiso  0.015458
    Ca1  Ca  0.1800  0.823550  0.702990  0.481700  Uiso  0.015458
    Ca1  Ca  0.1800  0.677890  0.748770  0.481700  Uiso  0.015458
    Ca1  Ca  0.1800  0.532230  0.794560  0.481700  Uiso  0.015458
    Ca1  Ca  0.1800  0.386570  0.840340  0.481700  Uiso  0.015458
    Ca1  Ca  0.1800  0.240910  0.886130  0.481700  Uiso  0.015458
    Ca1  Ca  0.1800  0.095240  0.931920  0.481700  Uiso  0.015458
    Ca1  Ca  0.1800  0.872110  0.769720  0.481700  Uiso  0.015458
    Ca1  Ca  0.1800  0.726440  0.815500  0.481700  Uiso  0.015458
    Ca1  Ca  0.1800  0.580780  0.861290  0.481700  Uiso  0.015458
    Ca1  Ca  0.1800  0.435120  0.907080  0.481700  Uiso  0.015458
    Ca1  Ca  0.1800  0.289460  0.952860  0.481700  Uiso  0.015458
    Ca1  Ca  0.1800  0.143800  0.998650  0.481700  Uiso  0.015458
    Ca1  Ca  0.1800  0.920660  0.836450  0.481700  Uiso  0.015458
    Ca1  Ca  0.1800  0.775000  0.882240  0.481700  Uiso  0.015458
    Ca1  Ca  0.1800  0.629340  0.928020  0.481700  Uiso  0.015458
    Ca1  Ca  0.1800  0.483680  0.973810  0.481700  Uiso  0.015458
    Ca1  Ca  0.1800  0.969210  0.903180  0.481700  Uiso  0.015458
    Ca1  Ca  0.1800  0.823550  0.948970  0.481700  Uiso  0.015458
    Ca1  Ca  0.1800  0.677890  0.994750  0.481700  Uiso  0.015458
    Mg1  Mg  0.0600  0.143800  0.014720  0.481700  Uiso  0.015458
    Mg1  Mg  0.0600  0.338010  0.035670  0.481700  Uiso  0.015458
    Mg1  Mg  0.0600  0.192350  0.081450  0.481700  Uiso  0.015458
    Mg1  Mg  0.0600  0.046690  0.127240  0.481700  Uiso  0.015458
    Mg1  Mg  0.0600  0.677890  0.010830  0.481700  Uiso  0.015458
    Mg1  Mg  0.0600  0.532230  0.056610  0.481700  Uiso  0.015458
    Mg1  Mg  0.0600  0.386570  0.102400  0.481700  Uiso  0.015458
    Mg1  Mg  0.0600  0.240910  0.148190  0.481700  Uiso  0.015458
    Mg1  Mg  0.0600  0.095240  0.193970  0.481700  Uiso  0.015458
    Mg1  Mg  0.0600  0.872110  0.031770  0.481700  Uiso  0.015458
    Mg1  Mg  0.0600  0.726440  0.077560  0.481700  Uiso  0.015458
    Mg1  Mg  0.0600  0.580780  0.123350  0.481700  Uiso  0.015458
    Mg1  Mg  0.0600  0.435120  0.169130  0.481700  Uiso  0.015458
    Mg1  Mg  0.0600  0.289460  0.214920  0.481700  Uiso  0.015458
    Mg1  Mg  0.0600  0.143800  0.260700  0.481700  Uiso  0.015458
    Mg1  Mg  0.0600  0.920660  0.098510  0.481700  Uiso  0.015458
    Mg1  Mg  0.0600  0.775000  0.144290  0.481700  Uiso  0.015458
    Mg1  Mg  0.0600  0.629340  0.190080  0.481700  Uiso  0.015458
    Mg1  Mg  0.0600  0.483680  0.235860  0.481700  Uiso  0.015458
    Mg1  Mg  0.0600  0.338010  0.281650  0.481700  Uiso  0.015458
    Mg1  Mg  0.0600  0.192350  0.327430  0.481700  Uiso  0.015458
    Mg1  Mg  0.0600  0.046690  0.373220  0.481700  Uiso  0.015458
    Mg1  Mg  0.0600  0.969210  0.165240  0.481700  Uiso  0.015458
    Mg1  Mg  0.0600  0.823550  0.211020  0.481700  Uiso  0.015458
    Mg1  Mg  0.0600  0.677890  0.256810  0.481700  Uiso  0.015458
    Mg1  Mg  0.0600  0.532230  0.302590  0.481700  Uiso  0.015458
    Mg1  Mg  0.0600  0.386570  0.348380  0.481700  Uiso  0.015458
    Mg1  Mg  0.0600  0.240910  0.394170  0.481700  Uiso  0.015458
    Mg1  Mg  0.0600  0.095240  0.439950  0.481700  Uiso  0.015458
    Mg1  Mg  0.0600  0.872110  0.277750  0.481700  Uiso  0.015458
    Mg1  Mg  0.0600  0.726440  0.323540  0.481700  Uiso  0.015458
    Mg1  Mg  0.0600  0.580780  0.369330  0.481700  Uiso  0.015458
    Mg1  Mg  0.0600  0.435120  0.415110  0.481700  Uiso  0.015458
    Mg1  Mg  0.0600  0.289460  0.460900  0.481700  Uiso  0.015458
    Mg1  Mg  0.0600  0.143800  0.506680  0.481700  Uiso  0.015458
    Mg1  Mg  0.0600  0.920660  0.344490  0.481700  Uiso  0.015458
    Mg1  Mg  0.0600  0.775000  0.390270  0.481700  Uiso  0.015458
    Mg1  Mg  0.0600  0.629340  0.436060  0.481700  Uiso  0.015458
    Mg1  Mg  0.0600  0.483680  0.481840  0.481700  Uiso  0.015458
    Mg1  Mg  0.0600  0.338010  0.527630  0.481700  Uiso  0.015458
    Mg1  Mg  0.0600  0.192350  0.573420  0.481700  Uiso  0.015458
    Mg1  Mg  0.0600  0.046690  0.619200  0.481700  Uiso  0.015458
    Mg1  Mg  0.0600  0.969210  0.411220  0.481700  Uiso  0.015458
    Mg1  Mg  0.0600  0.823550  0.457000  0.481700  Uiso  0.015458
    Mg1  Mg  0.0600  0.677890  0.502790  0.481700  Uiso  0.015458
    Mg1  Mg  0.0600  0.532230  0.548580  0.481700  Uiso  0.015458
    Mg1  Mg  0.0600  0.386570  0.594360  0.481700  Uiso  0.015458
    Mg1  Mg  0.0600  0.240910  0.640150  0.481700  Uiso  0.015458
    Mg1  Mg  0.0600  0.095240  0.685930  0.481700  Uiso  0.015458
    Mg1  Mg  0.0600  0.872110  0.523740  0.481700  Uiso  0.015458
    Mg1  Mg  0.0600  0.726440  0.569520  0.481700  Uiso  0.015458
    Mg1  Mg  0.0600  0.580780  0.615310  0.481700  Uiso  0.015458
    Mg1  Mg  0.0600  0.435120  0.661090  0.481700  Uiso  0.015458
    Mg1  Mg  0.0600  0.289460  0.706880  0.481700  Uiso  0.015458
    Mg1  Mg  0.0600  0.143800  0.752670  0.481700  Uiso  0.015458
    Mg1  Mg  0.0600  0.920660  0.590470  0.481700  Uiso  0.015458
    Mg1  Mg  0.0600  0.775000  0.636250  0.481700  Uiso  0.015458
    Mg1  Mg  0.0600  0.629340  0.682040  0.481700  Uiso  0.015458
    Mg1  Mg  0.0600  0.483680  0.727830  0.481700  Uiso  0.015458
    Mg1  Mg  0.0600  0.338010  0.773610  0.481700  Uiso  0.015458
    Mg1  Mg  0.0600  0.192350  0.819400  0.481700  Uiso  0.015458
    Mg1  Mg  0.0600  0.046690  0.865180  0.481700  Uiso  0.015458
    Mg1  Mg  0.0600  0.969210  0.657200  0.481700  Uiso  0.015458
    Mg1  Mg  0.0600  0.823550  0.702990  0.481700  Uiso  0.015458
    Mg1  Mg  0.0600  0.677890  0.748770  0.481700  Uiso  0.015458
    Mg1  Mg  0.0600  0.532230  0.794560  0.481700  Uiso  0.015458
    Mg1  Mg  0.0600  0.386570  0.840340  0.481700  Uiso  0.015458
    Mg1  Mg  0.0600  0.240910  0.886130  0.481700  Uiso  0.015458
    Mg1  Mg  0.0600  0.095240  0.931920  0.481700  Uiso  0.015458
    Mg1  Mg  0.0600  0.872110  0.769720  0.481700  Uiso  0.015458
    Mg1  Mg  0.0600  0.726440  0.815500  0.481700  Uiso  0.015458
    Mg1  Mg  0.0600  0.580780  0.861290  0.481700  Uiso  0.015458
    Mg1  Mg  0.0600  0.435120  0.907080  0.481700  Uiso  0.015458
    Mg1  Mg  0.0600  0.289460  0.952860  0.481700  Uiso  0.015458
    Mg1  Mg  0.0600  0.143800  0.998650  0.481700  Uiso  0.015458
    Mg1  Mg  0.0600  0.920660  0.836450  0.481700  Uiso  0.015458
    Mg1  Mg  0.0600  0.775000  0.882240  0.481700  Uiso  0.015458
    Mg1  Mg  0.0600  0.629340  0.928020  0.481700  Uiso  0.015458
    Mg1  Mg  0.0600  0.483680  0.973810  0.481700  Uiso  0.015458
    Mg1  Mg  0.0600  0.969210  0.903180  0.481700  Uiso  0.015458
    Mg1  Mg  0.0600  0.823550  0.948970  0.481700  Uiso  0.015458
    Mg1  Mg  0.0600  0.677890  0.994750  0.481700  Uiso  0.015458
    Si1  Si  1.0000  0.177300  0.008200  0.160200  Uiso  0.007392
    Si1  Si  1.0000  0.031640  0.053990  0.160200  Uiso  0.007392
    Si1  Si  1.0000  0.371520  0.029150  0.160200  Uiso  0.007392
    Si1  Si  1.0000  0.225850  0.074930  0.160200  Uiso  0.007392
    Si1  Si  1.0000  0.080190  0.120720  0.160200  Uiso  0.007392
    Si1  Si  1.0000  0.711390  0.004310  0.160200  Uiso  0.007392
    Si1  Si  1.0000  0.565730  0.050090  0.160200  Uiso  0.007392
    Si1  Si  1.0000  0.420070  0.095880  0.160200  Uiso  0.007392
    Si1  Si  1.0000  0.274410  0.141660  0.160200  Uiso  0.007392
    Si1  Si  1.0000  0.128750  0.187450  0.160200  Uiso  0.007392
    Si1  Si  1.0000  0.905610  0.025250  0.160200  Uiso  0.007392
    Si1  Si  1.0000  0.759950  0.071040  0.160200  Uiso  0.007392
    Si1  Si  1.0000  0.614290  0.116820  0.160200  Uiso  0.007392
    Si1  Si  1.0000  0.468620  0.162610  0.160200  Uiso  0.007392
    Si1  Si  1.0000  0.322960  0.208400  0.160200  Uiso  0.007392
    Si1  Si  1.0000  0.177300  0.254180  0.160200  Uiso  0.007392
    Si1  Si  1.0000  0.031640  0.299970  0.160200  Uiso  0.007392
    Si1  Si  1.0000  0.954160  0.091980  0.160200  Uiso  0.007392
    Si1  Si  1.0000  0.808500  0.137770  0.160200  Uiso  0.007392
    Si1  Si  1.0000  0.662840  0.183560  0.160200  Uiso  0.007392
    Si1  Si  1.0000  0.517180  0.229340  0.160200  Uiso  0.007392
    Si1  Si  1.0000  0.371520  0.275130  0.160200  Uiso  0.007392
    Si1  Si  1.0000  0.225850  0.320910  0.160200  Uiso  0.007392
    Si1  Si  1.0000  0.080190  0.366700  0.160200  Uiso  0.007392
    Si1  Si  1.0000  0.857050  0.204500  0.160200  Uiso  0.007392
    Si1  Si  1.0000  0.711390  0.250290  0.160200  Uiso  0.007392
    Si1  Si  1.0000  0.565730  0.296070  0.160200  Uiso  0.007392
    Si1  Si  1.0000  0.420070  0.341860  0.160200  Uiso  0.007392
    Si1  Si  1.0000  0.274410  0.387650  0.160200  Uiso  0.007392
    Si1  Si  1.0000  0.128750  0.433430  0.160200  Uiso  0.007392
    Si1  Si  1.0000  0.905610  0.271230  0.160200  Uiso  0.007392
    Si1  Si  1.0000  0.759950  0.317020  0.160200  Uiso  0.007392
    Si1  Si  1.0000  0.614290  0.362810  0.160200  Uiso  0.007392
    Si1  Si  1.0000  0.468620  0.408590  0.160200  Uiso  0.007392
    Si1  Si  1.0000  0.322960  0.454380  0.160200  Uiso  0.007392
    Si1  Si  1.0000  0.177300  0.500160  0.160200  Uiso  0.007392
    Si1  Si  1.0000  0.031640  0.545950  0.160200  Uiso  0.007392
    Si1  Si  1.0000  0.954160  0.337970  0.160200  Uiso  0.007392
    Si1  Si  1.0000  0.808500  0.383750  0.160200  Uiso  0.007392
    Si1  Si  1.0000  0.662840  0.429540  0.160200  Uiso  0.007392
    Si1  Si  1.0000  0.517180  0.475320  0.160200  Uiso  0.007392
    Si1  Si  1.0000  0.371520  0.521110  0.160200  Uiso  0.007392
    Si1  Si  1.0000  0.225850  0.566900  0.160200  Uiso  0.007392
    Si1  Si  1.0000  0.080190  0.612680  0.160200  Uiso  0.007392
    Si1  Si  1.0000  0.857050  0.450480  0.160200  Uiso  0.007392
    Si1  Si  1.0000  0.711390  0.496270  0.160200  Uiso  0.007392
    Si1  Si  1.0000  0.565730  0.542060  0.160200  Uiso  0.007392
    Si1  Si  1.0000  0.420070  0.587840  0.160200  Uiso  0.007392
    Si1  Si  1.0000  0.274410  0.633630  0.160200  Uiso  0.007392
    Si1  Si  1.0000  0.128750  0.679410  0.160200  Uiso  0.007392
    Si1  Si  1.0000  0.905610  0.517220  0.160200  Uiso  0.007392
    Si1  Si  1.0000  0.759950  0.563000  0.160200  Uiso  0.007392
    Si1  Si  1.0000  0.614290  0.608790  0.160200  Uiso  0.007392
    Si1  Si  1.0000  0.468620  0.654570  0.160200  Uiso  0.007392
    Si1  Si  1.0000  0.322960  0.700360  0.160200  Uiso  0.007392
    Si1  Si  1.0000  0.177300  0.746150  0.160200  Uiso  0.007392
    Si1  Si  1.0000  0.031640  0.791930  0.160200  Uiso  0.007392
    Si1  Si  1.0000  0.954160  0.583950  0.160200  Uiso  0.007392
    Si1  Si  1.0000  0.808500  0.629730  0.160200  Uiso  0.007392
    Si1  Si  1.0000  0.662840  0.675520  0.160200  Uiso  0.007392
    Si1  Si  1.0000  0.517180  0.721310  0.160200  Uiso  0.007392
    Si1  Si  1.0000  0.371520  0.767090  0.160200  Uiso  0.007392
    Si1  Si  1.0000  0.225850  0.812880  0.160200  Uiso  0.007392
    Si1  Si  1.0000  0.080190  0.858660  0.160200  Uiso  0.007392
    Si1  Si  1.0000  0.857050  0.696470  0.160200  Uiso  0.007392
    Si1  Si  1.0000  0.711390  0.742250  0.160200  Uiso  0.007392
    Si1  Si  1.0000  0.565730  0.788040  0.160200  Uiso  0.007392
    Si1  Si  1.0000  0.420070  0.833820  0.160200  Uiso  0.007392
    Si1  Si  1.0000  0.274410  0.879610  0.160200  Uiso  0.007392
    Si1  Si  1.0000  0.128750  0.925400  0.160200  Uiso  0.007392
    Si1  Si  1.0000  0.905610  0.763200  0.160200  Uiso  0.007392
    Si1  Si  1.0000  0.759950  0.808980  0.160200  Uiso  0.007392
    Si1  Si  1.0000  0.614290  0.854770  0.160200  Uiso  0.007392
    Si1  Si  1.0000  0.468620  0.900550  0.160200  Uiso  0.007392
    Si1  Si  1.0000  0.322960  0.946340  0.160200  Uiso  0.007392
    Si1  Si  1.0000  0.177300  0.992130  0.160200  Uiso  0.007392
    Si1  Si  1.0000  0.954160  0.829930  0.160200  Uiso  0.007392
    Si1  Si  1.0000  0.808500  0.875710  0.160200  Uiso  0.007392
    Si1  Si  1.0000  0.662840  0.921500  0.160200  Uiso  0.007392
    Si1  Si  1.0000  0.517180  0.967290  0.160200  Uiso  0.007392
    Si1  Si  1.0000  0.857050  0.942450  0.160200  Uiso  0.007392
    Si1  Si  1.0000  0.711390  0.988230  0.160200  Uiso  0.007392
    Si1  Si  1.0000  0.101280  0.028610  0.663300  Uiso  0.006367
    Si1  Si  1.0000  0.441160  0.003770  0.663300  Uiso  0.006367
    Si1  Si  1.0000  0.295500  0.049560  0.663300  Uiso  0.006367
    Si1  Si  1.0000  0.149840  0.095340  0.663300  Uiso  0.006367
    Si1  Si  1.0000  0.004180  0.141130  0.663300  Uiso  0.006367
    Si1  Si  1.0000  0.635380  0.024720  0.663300  Uiso  0.006367
    Si1  Si  1.0000  0.489720  0.070500  0.663300  Uiso  0.006367
    Si1  Si  1.0000  0.344050  0.116290  0.663300  Uiso  0.006367
    Si1  Si  1.0000  0.198390  0.162070  0.663300  Uiso  0.006367
    Si1  Si  1.0000  0.052730  0.207860  0.663300  Uiso  0.006367
    Si1  Si  1.0000  0.829590  0.045660  0.663300  Uiso  0.006367
    Si1  Si  1.0000  0.683930  0.091450  0.663300  Uiso  0.006367
    Si1  Si  1.0000  0.538270  0.137230  0.663300  Uiso  0.006367
    Si1  Si  1.0000  0.392610  0.183020  0.663300  Uiso  0.006367
    Si1  Si  1.0000  0.246950  0.228810  0.663300  Uiso  0.006367
    Si1  Si  1.0000  0.101280  0.274590  0.663300  Uiso  0.006367
    Si1  Si  1.0000  0.878150  0.112390  0.663300  Uiso  0.006367
    Si1  Si  1.0000  0.732480  0.158180  0.663300  Uiso  0.006367
    Si1  Si  1.0000  0.586820  0.203970  0.663300  Uiso  0.006367
    Si1  Si  1.0000  0.441160  0.249750  0.663300  Uiso  0.006367
    Si1  Si  1.0000  0.295500  0.295540  0.663300  Uiso  0.006367
    Si1  Si  1.0000  0.149840  0.341320  0.663300  Uiso  0.006367
    Si1  Si  1.0000  0.004180  0.387110  0.663300  Uiso  0.006367
    Si1  Si  1.0000  0.926700  0.179130  0.663300  Uiso  0.006367
    Si1  Si  1.0000  0.781040  0.224910  0.663300  Uiso  0.006367
    Si1  Si  1.0000  0.635380  0.270700  0.663300  Uiso  0.006367
    Si1  Si  1.0000  0.489720  0.316480  0.663300  Uiso  0.006367
    Si1  Si  1.0000  0.344050  0.362270  0.663300  Uiso  0.006367
    Si1  Si  1.0000  0.198390  0.408050  0.663300  Uiso  0.006367
    Si1  Si  1.0000  0.052730  0.453840  0.663300  Uiso  0.006367
    Si1  Si  1.0000  0.975250  0.245860  0.663300  Uiso  0.006367
    Si1  Si  1.0000  0.829590  0.291640  0.663300  Uiso  0.006367
    Si1  Si  1.0000  0.683930  0.337430  0.663300  Uiso  0.006367
    Si1  Si  1.0000  0.538270  0.383210  0.663300  Uiso  0.006367
    Si1  Si  1.0000  0.392610  0.429000  0.663300  Uiso  0.006367
    Si1  Si  1.0000  0.246950  0.474790  0.663300  Uiso  0.006367
    Si1  Si  1.0000  0.101280  0.520570  0.663300  Uiso  0.006367
    Si1  Si  1.0000  0.878150  0.358370  0.663300  Uiso  0.006367
    Si1  Si  1.0000  0.732480  0.404160  0.663300  Uiso  0.006367
    Si1  Si  1.0000  0.586820  0.449950  0.663300  Uiso  0.006367
    Si1  Si  1.0000  0.441160  0.495730  0.663300  Uiso  0.006367
    Si1  Si  1.0000  0.295500  0.541520  0.663300  Uiso  0.006367
    Si1  Si  1.0000  0.149840  0.587300  0.663300  Uiso  0.006367
    Si1  Si  1.0000  0.004180  0.633090  0.663300  Uiso  0.006367
    Si1  Si  1.0000  0.926700  0.425110  0.663300  Uiso  0.006367
    Si1  Si  1.0000  0.781040  0.470890  0.663300  Uiso  0.006367
    Si1  Si  1.0000  0.635380  0.516680  0.663300  Uiso  0.006367
    Si1  Si  1.0000  0.489720  0.562460  0.663300  Uiso  0.006367
    Si1  Si  1.0000  0.344050  0.608250  0.663300  Uiso  0.006367
    Si1  Si  1.0000  0.198390  0.654040  0.663300  Uiso  0.006367
    Si1  Si  1.0000  0.052730  0.699820  0.663300  Uiso  0.006367
    Si1  Si  1.0000  0.975250  0.491840  0.663300  Uiso  0.006367
    Si1  Si  1.0000  0.829590  0.537620  0.663300  Uiso  0.006367
    Si1  Si  1.0000  0.683930  0.583410  0.663300  Uiso  0.006367
    Si1  Si  1.0000  0.538270  0.629200  0.663300  Uiso  0.006367
    Si1  Si  1.0000  0.392610  0.674980  0.663300  Uiso  0.006367
    Si1  Si  1.0000  0.246950  0.720770  0.663300  Uiso  0.006367
    Si1  Si  1.0000  0.101280  0.766550  0.663300  Uiso  0.006367
    Si1  Si  1.0000  0.878150  0.604360  0.663300  Uiso  0.006367
    Si1  Si  1.0000  0.732480  0.650140  0.663300  Uiso  0.006367
    Si1  Si  1.0000  0.586820  0.695930  0.663300  Uiso  0.006367
    Si1  Si  1.0000  0.441160  0.741710  0.663300  Uiso  0.006367
    Si1  Si  1.0000  0.295500  0.787500  0.663300  Uiso  0.006367
    Si1  Si  1.0000  0.149840  0.833290  0.663300  Uiso  0.006367
    Si1  Si  1.0000  0.004180  0.879070  0.663300  Uiso  0.006367
    Si1  Si  1.0000  0.926700  0.671090  0.663300  Uiso  0.006367
    Si1  Si  1.0000  0.781040  0.716870  0.663300  Uiso  0.006367
    Si1  Si  1.0000  0.635380  0.762660  0.663300  Uiso  0.006367
    Si1  Si  1.0000  0.489720  0.808450  0.663300  Uiso  0.006367
    Si1  Si  1.0000  0.344050  0.854230  0.663300  Uiso  0.006367
    Si1  Si  1.0000  0.198390  0.900020  0.663300  Uiso  0.006367
    Si1  Si  1.0000  0.052730  0.945800  0.663300  Uiso  0.006367
    Si1  Si  1.0000  0.975250  0.737820  0.663300  Uiso  0.006367
    Si1  Si  1.0000  0.829590  0.783610  0.663300  Uiso  0.006367
    Si1  Si  1.0000  0.683930  0.829390  0.663300  Uiso  0.006367
    Si1  Si  1.0000  0.538270  0.875180  0.663300  Uiso  0.006367
    Si1  Si  1.0000  0.392610  0.920960  0.663300  Uiso  0.006367
    Si1  Si  1.0000  0.246950  0.966750  0.663300  Uiso  0.006367
    Si1  Si  1.0000  0.878150  0.850340  0.663300  Uiso  0.006367
    Si1  Si  1.0000  0.732480  0.896120  0.663300  Uiso  0.006367
    Si1  Si  1.0000  0.586820  0.941910  0.663300  Uiso  0.006367
    Si1  Si  1.0000  0.441160  0.987700  0.663300  Uiso  0.006367
    Si1  Si  1.0000  0.926700  0.917070  0.663300  Uiso  0.006367
    Si1  Si  1.0000  0.781040  0.962860  0.663300  Uiso  0.006367
    Si1  Si  1.0000  0.975250  0.983800  0.663300  Uiso  0.006367
    O1  O  1.0000  0.143710  0.009880  0.159600  Uiso  0.007809
    O1  O  1.0000  0.337930  0.030830  0.159600  Uiso  0.007809
    O1  O  1.0000  0.192270  0.076620  0.159600  Uiso  0.007809
    O1  O  1.0000  0.046610  0.122400  0.159600  Uiso  0.007809
    O1  O  1.0000  0.677810  0.005990  0.159600  Uiso  0.007809
    O1  O  1.0000  0.532150  0.051780  0.159600  Uiso  0.007809
    O1  O  1.0000  0.386480  0.097560  0.159600  Uiso  0.007809
    O1  O  1.0000  0.240820  0.143350  0.159600  Uiso  0.007809
    O1  O  1.0000  0.095160  0.189130  0.159600  Uiso  0.007809
    O1  O  1.0000  0.872020  0.026940  0.159600  Uiso  0.007809
    O1  O  1.0000  0.726360  0.072720  0.159600  Uiso  0.007809
    O1  O  1.0000  0.580700  0.118510  0.159600  Uiso  0.007809
    O1  O  1.0000  0.435040  0.164290  0.159600  Uiso  0.007809
    O1  O  1.0000  0.289380  0.210080  0.159600  Uiso  0.007809
    O1  O  1.0000  0.143710  0.255870  0.159600  Uiso  0.007809
    O1  O  1.0000  0.920580  0.093670  0.159600  Uiso  0.007809
    O1  O  1.0000  0.774920  0.139450  0.159600  Uiso  0.007809
    O1  O  1.0000  0.629250  0.185240  0.159600  Uiso  0.007809
    O1  O  1.0000  0.483590  0.231030  0.159600  Uiso  0.007809
    O1  O  1.0000  0.337930  0.276810  0.159600  Uiso  0.007809
    O1  O  1.0000  0.192270  0.322600  0.159600  Uiso  0.007809
    O1  O  1.0000  0.046610  0.368380  0.159600  Uiso  0.007809
    O1  O  1.0000  0.969130  0.160400  0.159600  Uiso  0.007809
    O1  O  1.0000  0.823470  0.206190  0.159600  Uiso  0.007809
    O1  O  1.0000  0.677810  0.251970  0.159600  Uiso  0.007809
    O1  O  1.0000  0.532150  0.297760  0.159600  Uiso  0.007809
    O1  O  1.0000  0.386480  0.343540  0.159600  Uiso  0.007809
    O1  O  1.0000  0.240820  0.389330  0.159600  Uiso  0.007809
    O1  O  1.0000  0.095160  0.435120  0.159600  Uiso  0.007809
    O1  O  1.0000  0.872020  0.272920  0.159600  Uiso  0.007809
    O1  O  1.0000  0.726360  0.318700  0.159600  Uiso  0.007809
    O1  O  1.0000  0.580700  0.364490  0.159600  Uiso  0.007809
    O1  O  1.0000  0.435040  0.410280  0.159600  Uiso  0.007809
    O1  O  1.0000  0.289380  0.456060  0.159600  Uiso  0.007809
    O1  O  1.0000  0.143710  0.501850  0.159600  Uiso  0.007809
    O1  O  1.0000  0.920580  0.339650  0.159600  Uiso  0.007809
    O1  O  1.0000  0.774920  0.385440  0.159600  Uiso  0.007809
    O1  O  1.0000  0.629250  0.431220  0.159600  Uiso  0.007809
    O1  O  1.0000  0.483590  0.477010  0.159600  Uiso  0.007809
    O1  O  1.0000  0.337930  0.522790  0.159600  Uiso  0.007809
    O1  O  1.0000  0.192270  0.568580  0.159600  Uiso  0.007809
    O1  O  1.0000  0.046610  0.614370  0.159600  Uiso  0.007809
    O1  O  1.0000  0.969130  0.406380  0.159600  Uiso  0.007809
    O1  O  1.0000  0.823470  0.452170  0.159600  Uiso  0.007809
    O1  O  1.0000  0.677810  0.497950  0.159600  Uiso  0.007809
    O1  O  1.0000  0.532150  0.543740  0.159600  Uiso  0.007809
    O1  O  1.0000  0.386480  0.589530  0.159600  Uiso  0.007809
    O1  O  1.0000  0.240820  0.635310  0.159600  Uiso  0.007809
    O1  O  1.0000  0.095160  0.681100  0.159600  Uiso  0.007809
    O1  O  1.0000  0.872020  0.518900  0.159600  Uiso  0.007809
    O1  O  1.0000  0.726360  0.564690  0.159600  Uiso  0.007809
    O1  O  1.0000  0.580700  0.610470  0.159600  Uiso  0.007809
    O1  O  1.0000  0.435040  0.656260  0.159600  Uiso  0.007809
    O1  O  1.0000  0.289380  0.702040  0.159600  Uiso  0.007809
    O1  O  1.0000  0.143710  0.747830  0.159600  Uiso  0.007809
    O1  O  1.0000  0.920580  0.585630  0.159600  Uiso  0.007809
    O1  O  1.0000  0.774920  0.631420  0.159600  Uiso  0.007809
    O1  O  1.0000  0.629250  0.677200  0.159600  Uiso  0.007809
    O1  O  1.0000  0.483590  0.722990  0.159600  Uiso  0.007809
    O1  O  1.0000  0.337930  0.768780  0.159600  Uiso  0.007809
    O1  O  1.0000  0.192270  0.814560  0.159600  Uiso  0.007809
    O1  O  1.0000  0.046610  0.860350  0.159600  Uiso  0.007809
    O1  O  1.0000  0.969130  0.652360  0.159600  Uiso  0.007809
    O1  O  1.0000  0.823470  0.698150  0.159600  Uiso  0.007809
    O1  O  1.0000  0.677810  0.743940  0.159600  Uiso  0.007809
    O1  O  1.0000  0.532150  0.789720  0.159600  Uiso  0.007809
    O1  O  1.0000  0.386480  0.835510  0.159600  Uiso  0.007809
    O1  O  1.0000  0.240820  0.881290  0.159600  Uiso  0.007809
    O1  O  1.0000  0.095160  0.927080  0.159600  Uiso  0.007809
    O1  O  1.0000  0.872020  0.764880  0.159600  Uiso  0.007809
    O1  O  1.0000  0.726360  0.810670  0.159600  Uiso  0.007809
    O1  O  1.0000  0.580700  0.856450  0.159600  Uiso  0.007809
    O1  O  1.0000  0.435040  0.902240  0.159600  Uiso  0.007809
    O1  O  1.0000  0.289380  0.948030  0.159600  Uiso  0.007809
    O1  O  1.0000  0.143710  0.993810  0.159600  Uiso  0.007809
    O1  O  1.0000  0.920580  0.831610  0.159600  Uiso  0.007809
    O1  O  1.0000  0.774920  0.877400  0.159600  Uiso  0.007809
    O1  O  1.0000  0.629250  0.923190  0.159600  Uiso  0.007809
    O1  O  1.0000  0.483590  0.968970  0.159600  Uiso  0.007809
    O1  O  1.0000  0.969130  0.898350  0.159600  Uiso  0.007809
    O1  O  1.0000  0.823470  0.944130  0.159600  Uiso  0.007809
    O1  O  1.0000  0.677810  0.989920  0.159600  Uiso  0.007809
    O1  O  1.0000  0.168220  0.015230  0.003000  Uiso  0.010060
    O1  O  1.0000  0.022560  0.061010  0.003000  Uiso  0.010060
    O1  O  1.0000  0.362440  0.036170  0.003000  Uiso  0.010060
    O1  O  1.0000  0.216770  0.081960  0.003000  Uiso  0.010060
    O1  O  1.0000  0.071110  0.127750  0.003000  Uiso  0.010060
    O1  O  1.0000  0.702310  0.011330  0.003000  Uiso  0.010060
    O1  O  1.0000  0.556650  0.057120  0.003000  Uiso  0.010060
    O1  O  1.0000  0.410990  0.102910  0.003000  Uiso  0.010060
    O1  O  1.0000  0.265330  0.148690  0.003000  Uiso  0.010060
    O1  O  1.0000  0.119670  0.194480  0.003000  Uiso  0.010060
    O1  O  1.0000  0.896530  0.032280  0.003000  Uiso  0.010060
    O1  O  1.0000  0.750870  0.078070  0.003000  Uiso  0.010060
    O1  O  1.0000  0.605210  0.123850  0.003000  Uiso  0.010060
    O1  O  1.0000  0.459540  0.169640  0.003000  Uiso  0.010060
    O1  O  1.0000  0.313880  0.215420  0.003000  Uiso  0.010060
    O1  O  1.0000  0.168220  0.261210  0.003000  Uiso  0.010060
    O1  O  1.0000  0.022560  0.307000  0.003000  Uiso  0.010060
    O1  O  1.0000  0.945080  0.099010  0.003000  Uiso  0.010060
    O1  O  1.0000  0.799420  0.144800  0.003000  Uiso  0.010060
    O1  O  1.0000  0.653760  0.190580  0.003000  Uiso  0.010060
    O1  O  1.0000  0.508100  0.236370  0.003000  Uiso  0.010060
    O1  O  1.0000  0.362440  0.282160  0.003000  Uiso  0.010060
    O1  O  1.0000  0.216770  0.327940  0.003000  Uiso  0.010060
    O1  O  1.0000  0.071110  0.373730  0.003000  Uiso  0.010060
    O1  O  1.0000  0.993640  0.165740  0.003000  Uiso  0.010060
    O1  O  1.0000  0.847980  0.211530  0.003000  Uiso  0.010060
    O1  O  1.0000  0.702310  0.257320  0.003000  Uiso  0.010060
    O1  O  1.0000  0.556650  0.303100  0.003000  Uiso  0.010060
    O1  O  1.0000  0.410990  0.348890  0.003000  Uiso  0.010060
    O1  O  1.0000  0.265330  0.394670  0.003000  Uiso  0.010060
    O1  O  1.0000  0.119670  0.440460  0.003000  Uiso  0.010060
    O1  O  1.0000  0.896530  0.278260  0.003000  Uiso  0.010060
    O1  O  1.0000  0.750870  0.324050  0.003000  Uiso  0.010060
    O1  O  1.0000  0.605210  0.369830  0.003000  Uiso  0.010060
    O1  O  1.0000  0.459540  0.415620  0.003000  Uiso  0.010060
    O1  O  1.0000  0.313880  0.461400  0.003000  Uiso  0.010060
    O1  O  1.0000  0.168220  0.507190  0.003000  Uiso  0.010060
    O1  O  1.0000  0.022560  0.552980  0.003000  Uiso  0.010060
    O1  O  1.0000  0.945080  0.344990  0.003000  Uiso  0.010060
    O1  O  1.0000  0.799420  0.390780  0.003000  Uiso  0.010060
    O1  O  1.0000  0.653760  0.436560  0.003000  Uiso  0.010060
    O1  O  1.0000  0.508100  0.482350  0.003000  Uiso  0.010060
    O1  O  1.0000  0.362440  0.528140  0.003000  Uiso  0.010060
    O1  O  1.0000  0.216770  0.573920  0.003000  Uiso  0.010060
    O1  O  1.0000  0.071110  0.619710  0.003000  Uiso  0.010060
    O1  O  1.0000  0.993640  0.411720  0.003000  Uiso  0.010060
    O1  O  1.0000  0.847980  0.457510  0.003000  Uiso  0.010060
    O1  O  1.0000  0.702310  0.503300  0.003000  Uiso  0.010060
    O1  O  1.0000  0.556650  0.549080  0.003000  Uiso  0.010060
    O1  O  1.0000  0.410990  0.594870  0.003000  Uiso  0.010060
    O1  O  1.0000  0.265330  0.640650  0.003000  Uiso  0.010060
    O1  O  1.0000  0.119670  0.686440  0.003000  Uiso  0.010060
    O1  O  1.0000  0.896530  0.524240  0.003000  Uiso  0.010060
    O1  O  1.0000  0.750870  0.570030  0.003000  Uiso  0.010060
    O1  O  1.0000  0.605210  0.615810  0.003000  Uiso  0.010060
    O1  O  1.0000  0.459540  0.661600  0.003000  Uiso  0.010060
    O1  O  1.0000  0.313880  0.707390  0.003000  Uiso  0.010060
    O1  O  1.0000  0.168220  0.753170  0.003000  Uiso  0.010060
    O1  O  1.0000  0.022560  0.798960  0.003000  Uiso  0.010060
    O1  O  1.0000  0.945080  0.590970  0.003000  Uiso  0.010060
    O1  O  1.0000  0.799420  0.636760  0.003000  Uiso  0.010060
    O1  O  1.0000  0.653760  0.682550  0.003000  Uiso  0.010060
    O1  O  1.0000  0.508100  0.728330  0.003000  Uiso  0.010060
    O1  O  1.0000  0.362440  0.774120  0.003000  Uiso  0.010060
    O1  O  1.0000  0.216770  0.819900  0.003000  Uiso  0.010060
    O1  O  1.0000  0.071110  0.865690  0.003000  Uiso  0.010060
    O1  O  1.0000  0.993640  0.657710  0.003000  Uiso  0.010060
    O1  O  1.0000  0.847980  0.703490  0.003000  Uiso  0.010060
    O1  O  1.0000  0.702310  0.749280  0.003000  Uiso  0.010060
    O1  O  1.0000  0.556650  0.795060  0.003000  Uiso  0.010060
    O1  O  1.0000  0.410990  0.840850  0.003000  Uiso  0.010060
    O1  O  1.0000  0.265330  0.886640  0.003000  Uiso  0.010060
    O1  O  1.0000  0.119670  0.932420  0.003000  Uiso  0.010060
    O1  O  1.0000  0.896530  0.770220  0.003000  Uiso  0.010060
    O1  O  1.0000  0.750870  0.816010  0.003000  Uiso  0.010060
    O1  O  1.0000  0.605210  0.861800  0.003000  Uiso  0.010060
    O1  O  1.0000  0.459540  0.907580  0.003000  Uiso  0.010060
    O1  O  1.0000  0.313880  0.953370  0.003000  Uiso  0.010060
    O1  O  1.0000  0.168220  0.999150  0.003000  Uiso  0.010060
    O1  O  1.0000  0.945080  0.836960  0.003000  Uiso  0.010060
    O1  O  1.0000  0.799420  0.882740  0.003000  Uiso  0.010060
    O1  O  1.0000  0.653760  0.928530  0.003000  Uiso  0.010060
    O1  O  1.0000  0.508100  0.974310  0.003000  Uiso  0.010060
    O1  O  1.0000  0.993640  0.903690  0.003000  Uiso  0.010060
    O1  O  1.0000  0.847980  0.949470  0.003000  Uiso  0.010060
    O1  O  1.0000  0.702310  0.995260  0.003000  Uiso  0.010060
    O1  O  1.0000  0.182890  0.030890  0.236700  Uiso  0.011470
    O1  O  1.0000  0.037230  0.076680  0.236700  Uiso  0.011470
    O1  O  1.0000  0.522770  0.006050  0.236700  Uiso  0.011470
    O1  O  1.0000  0.377110  0.051840  0.236700  Uiso  0.011470
    O1  O  1.0000  0.231450  0.097620  0.236700  Uiso  0.011470
    O1  O  1.0000  0.085790  0.143410  0.236700  Uiso  0.011470
    O1  O  1.0000  0.716990  0.027000  0.236700  Uiso  0.011470
    O1  O  1.0000  0.571320  0.072780  0.236700  Uiso  0.011470
    O1  O  1.0000  0.425660  0.118570  0.236700  Uiso  0.011470
    O1  O  1.0000  0.280000  0.164360  0.236700  Uiso  0.011470
    O1  O  1.0000  0.134340  0.210140  0.236700  Uiso  0.011470
    O1  O  1.0000  0.911200  0.047940  0.236700  Uiso  0.011470
    O1  O  1.0000  0.765540  0.093730  0.236700  Uiso  0.011470
    O1  O  1.0000  0.619880  0.139520  0.236700  Uiso  0.011470
    O1  O  1.0000  0.474220  0.185300  0.236700  Uiso  0.011470
    O1  O  1.0000  0.328550  0.231090  0.236700  Uiso  0.011470
    O1  O  1.0000  0.182890  0.276870  0.236700  Uiso  0.011470
    O1  O  1.0000  0.037230  0.322660  0.236700  Uiso  0.011470
    O1  O  1.0000  0.959760  0.114680  0.236700  Uiso  0.011470
    O1  O  1.0000  0.814090  0.160460  0.236700  Uiso  0.011470
    O1  O  1.0000  0.668430  0.206250  0.236700  Uiso  0.011470
    O1  O  1.0000  0.522770  0.252030  0.236700  Uiso  0.011470
    O1  O  1.0000  0.377110  0.297820  0.236700  Uiso  0.011470
    O1  O  1.0000  0.231450  0.343610  0.236700  Uiso  0.011470
    O1  O  1.0000  0.085790  0.389390  0.236700  Uiso  0.011470
    O1  O  1.0000  0.862650  0.227190  0.236700  Uiso  0.011470
    O1  O  1.0000  0.716990  0.272980  0.236700  Uiso  0.011470
    O1  O  1.0000  0.571320  0.318770  0.236700  Uiso  0.011470
    O1  O  1.0000  0.425660  0.364550  0.236700  Uiso  0.011470
    O1  O  1.0000  0.280000  0.410340  0.236700  Uiso  0.011470
    O1  O  1.0000  0.134340  0.456120  0.236700  Uiso  0.011470
    O1  O  1.0000  0.911200  0.293930  0.236700  Uiso  0.011470
    O1  O  1.0000  0.765540  0.339710  0.236700  Uiso  0.011470
    O1  O  1.0000  0.619880  0.385500  0.236700  Uiso  0.011470
    O1  O  1.0000  0.474220  0.431280  0.236700  Uiso  0.011470
    O1  O  1.0000  0.328550  0.477070  0.236700  Uiso  0.011470
    O1  O  1.0000  0.182890  0.522860  0.236700  Uiso  0.011470
    O1  O  1.0000  0.037230  0.568640  0.236700  Uiso  0.011470
    O1  O  1.0000  0.959760  0.360660  0.236700  Uiso  0.011470
    O1  O  1.0000  0.814090  0.406440  0.236700  Uiso  0.011470
    O1  O  1.0000  0.668430  0.452230  0.236700  Uiso  0.011470
    O1  O  1.0000  0.522770  0.498020  0.236700  Uiso  0.011470
    O1  O  1.0000  0.377110  0.543800  0.236700  Uiso  0.011470
    O1  O  1.0000  0.231450  0.589590  0.236700  Uiso  0.011470
    O1  O  1.0000  0.085790  0.635370  0.236700  Uiso  0.011470
    O1  O  1.0000  0.862650  0.473180  0.236700  Uiso  0.011470
    O1  O  1.0000  0.716990  0.518960  0.236700  Uiso  0.011470
    O1  O  1.0000  0.571320  0.564750  0.236700  Uiso  0.011470
    O1  O  1.0000  0.425660  0.610530  0.236700  Uiso  0.011470
    O1  O  1.0000  0.280000  0.656320  0.236700  Uiso  0.011470
    O1  O  1.0000  0.134340  0.702110  0.236700  Uiso  0.011470
    O1  O  1.0000  0.911200  0.539910  0.236700  Uiso  0.011470
    O1  O  1.0000  0.765540  0.585690  0.236700  Uiso  0.011470
    O1  O  1.0000  0.619880  0.631480  0.236700  Uiso  0.011470
    O1  O  1.0000  0.474220  0.677270  0.236700  Uiso  0.011470
    O1  O  1.0000  0.328550  0.723050  0.236700  Uiso  0.011470
    O1  O  1.0000  0.182890  0.768840  0.236700  Uiso  0.011470
    O1  O  1.0000  0.037230  0.814620  0.236700  Uiso  0.011470
    O1  O  1.0000  0.959760  0.606640  0.236700  Uiso  0.011470
    O1  O  1.0000  0.814090  0.652430  0.236700  Uiso  0.011470
    O1  O  1.0000  0.668430  0.698210  0.236700  Uiso  0.011470
    O1  O  1.0000  0.522770  0.744000  0.236700  Uiso  0.011470
    O1  O  1.0000  0.377110  0.789780  0.236700  Uiso  0.011470
    O1  O  1.0000  0.231450  0.835570  0.236700  Uiso  0.011470
    O1  O  1.0000  0.085790  0.881360  0.236700  Uiso  0.011470
    O1  O  1.0000  0.862650  0.719160  0.236700  Uiso  0.011470
    O1  O  1.0000  0.716990  0.764940  0.236700  Uiso  0.011470
    O1  O  1.0000  0.571320  0.810730  0.236700  Uiso  0.011470
    O1  O  1.0000  0.425660  0.856520  0.236700  Uiso  0.011470
    O1  O  1.0000  0.280000  0.902300  0.236700  Uiso  0.011470
    O1  O  1.0000  0.134340  0.948090  0.236700  Uiso  0.011470
    O1  O  1.0000  0.911200  0.785890  0.236700  Uiso  0.011470
    O1  O  1.0000  0.765540  0.831680  0.236700  Uiso  0.011470
    O1  O  1.0000  0.619880  0.877460  0.236700  Uiso  0.011470
    O1  O  1.0000  0.474220  0.923250  0.236700  Uiso  0.011470
    O1  O  1.0000  0.328550  0.969030  0.236700  Uiso  0.011470
    O1  O  1.0000  0.959760  0.852620  0.236700  Uiso  0.011470
    O1  O  1.0000  0.814090  0.898410  0.236700  Uiso  0.011470
    O1  O  1.0000  0.668430  0.944190  0.236700  Uiso  0.011470
    O1  O  1.0000  0.522770  0.989980  0.236700  Uiso  0.011470
    O1  O  1.0000  0.862650  0.965140  0.236700  Uiso  0.011470
    O1  O  1.0000  0.121940  0.013690  0.665800  Uiso  0.007491
    O1  O  1.0000  0.316160  0.034630  0.665800  Uiso  0.007491
    O1  O  1.0000  0.170500  0.080420  0.665800  Uiso  0.007491
    O1  O  1.0000  0.024840  0.126200  0.665800  Uiso  0.007491
    O1  O  1.0000  0.656040  0.009790  0.665800  Uiso  0.007491
    O1  O  1.0000  0.510370  0.055580  0.665800  Uiso  0.007491
    O1  O  1.0000  0.364710  0.101360  0.665800  Uiso  0.007491
    O1  O  1.0000  0.219050  0.147150  0.665800  Uiso  0.007491
    O1  O  1.0000  0.073390  0.192940  0.665800  Uiso  0.007491
    O1  O  1.0000  0.850250  0.030740  0.665800  Uiso  0.007491
    O1  O  1.0000  0.704590  0.076520  0.665800  Uiso  0.007491
    O1  O  1.0000  0.558930  0.122310  0.665800  Uiso  0.007491
    O1  O  1.0000  0.413270  0.168100  0.665800  Uiso  0.007491
    O1  O  1.0000  0.267610  0.213880  0.665800  Uiso  0.007491
    O1  O  1.0000  0.121940  0.259670  0.665800  Uiso  0.007491
    O1  O  1.0000  0.898810  0.097470  0.665800  Uiso  0.007491
    O1  O  1.0000  0.753140  0.143260  0.665800  Uiso  0.007491
    O1  O  1.0000  0.607480  0.189040  0.665800  Uiso  0.007491
    O1  O  1.0000  0.461820  0.234830  0.665800  Uiso  0.007491
    O1  O  1.0000  0.316160  0.280610  0.665800  Uiso  0.007491
    O1  O  1.0000  0.170500  0.326400  0.665800  Uiso  0.007491
    O1  O  1.0000  0.024840  0.372190  0.665800  Uiso  0.007491
    O1  O  1.0000  0.947360  0.164200  0.665800  Uiso  0.007491
    O1  O  1.0000  0.801700  0.209990  0.665800  Uiso  0.007491
    O1  O  1.0000  0.656040  0.255770  0.665800  Uiso  0.007491
    O1  O  1.0000  0.510370  0.301560  0.665800  Uiso  0.007491
    O1  O  1.0000  0.364710  0.347350  0.665800  Uiso  0.007491
    O1  O  1.0000  0.219050  0.393130  0.665800  Uiso  0.007491
    O1  O  1.0000  0.073390  0.438920  0.665800  Uiso  0.007491
    O1  O  1.0000  0.995910  0.230930  0.665800  Uiso  0.007491
    O1  O  1.0000  0.850250  0.276720  0.665800  Uiso  0.007491
    O1  O  1.0000  0.704590  0.322510  0.665800  Uiso  0.007491
    O1  O  1.0000  0.558930  0.368290  0.665800  Uiso  0.007491
    O1  O  1.0000  0.413270  0.414080  0.665800  Uiso  0.007491
    O1  O  1.0000  0.267610  0.459860  0.665800  Uiso  0.007491
    O1  O  1.0000  0.121940  0.505650  0.665800  Uiso  0.007491
    O1  O  1.0000  0.898810  0.343450  0.665800  Uiso  0.007491
    O1  O  1.0000  0.753140  0.389240  0.665800  Uiso  0.007491
    O1  O  1.0000  0.607480  0.435020  0.665800  Uiso  0.007491
    O1  O  1.0000  0.461820  0.480810  0.665800  Uiso  0.007491
    O1  O  1.0000  0.316160  0.526600  0.665800  Uiso  0.007491
    O1  O  1.0000  0.170500  0.572380  0.665800  Uiso  0.007491
    O1  O  1.0000  0.024840  0.618170  0.665800  Uiso  0.007491
    O1  O  1.0000  0.947360  0.410180  0.665800  Uiso  0.007491
    O1  O  1.0000  0.801700  0.455970  0.665800  Uiso  0.007491
    O1  O  1.0000  0.656040  0.501760  0.665800  Uiso  0.007491
    O1  O  1.0000  0.510370  0.547540  0.665800  Uiso  0.007491
    O1  O  1.0000  0.364710  0.593330  0.665800  Uiso  0.007491
    O1  O  1.0000  0.219050  0.639110  0.665800  Uiso  0.007491
    O1  O  1.0000  0.073390  0.684900  0.665800  Uiso  0.007491
    O1  O  1.0000  0.995910  0.476920  0.665800  Uiso  0.007491
    O1  O  1.0000  0.850250  0.522700  0.665800  Uiso  0.007491
    O1  O  1.0000  0.704590  0.568490  0.665800  Uiso  0.007491
    O1  O  1.0000  0.558930  0.614270  0.665800  Uiso  0.007491
    O1  O  1.0000  0.413270  0.660060  0.665800  Uiso  0.007491
    O1  O  1.0000  0.267610  0.705850  0.665800  Uiso  0.007491
    O1  O  1.0000  0.121940  0.751630  0.665800  Uiso  0.007491
    O1  O  1.0000  0.898810  0.589430  0.665800  Uiso  0.007491
    O1  O  1.0000  0.753140  0.635220  0.665800  Uiso  0.007491
    O1  O  1.0000  0.607480  0.681010  0.665800  Uiso  0.007491
    O1  O  1.0000  0.461820  0.726790  0.665800  Uiso  0.007491
    O1  O  1.0000  0.316160  0.772580  0.665800  Uiso  0.007491
    O1  O  1.0000  0.170500  0.818360  0.665800  Uiso  0.007491
    O1  O  1.0000  0.024840  0.864150  0.665800  Uiso  0.007491
    O1  O  1.0000  0.947360  0.656170  0.665800  Uiso  0.007491
    O1  O  1.0000  0.801700  0.701950  0.665800  Uiso  0.007491
    O1  O  1.0000  0.656040  0.747740  0.665800  Uiso  0.007491
    O1  O  1.0000  0.510370  0.793520  0.665800  Uiso  0.007491
    O1  O  1.0000  0.364710  0.839310  0.665800  Uiso  0.007491
    O1  O  1.0000  0.219050  0.885100  0.665800  Uiso  0.007491
    O1  O  1.0000  0.073390  0.930880  0.665800  Uiso  0.007491
    O1  O  1.0000  0.995910  0.722900  0.665800  Uiso  0.007491
    O1  O  1.0000  0.850250  0.768680  0.665800  Uiso  0.007491
    O1  O  1.0000  0.704590  0.814470  0.665800  Uiso  0.007491
    O1  O  1.0000  0.558930  0.860260  0.665800  Uiso  0.007491
    O1  O  1.0000  0.413270  0.906040  0.665800  Uiso  0.007491
    O1  O  1.0000  0.267610  0.951830  0.665800  Uiso  0.007491
    O1  O  1.0000  0.121940  0.997610  0.665800  Uiso  0.007491
    O1  O  1.0000  0.898810  0.835420  0.665800  Uiso  0.007491
    O1  O  1.0000  0.753140  0.881200  0.665800  Uiso  0.007491
    O1  O  1.0000  0.607480  0.926990  0.665800  Uiso  0.007491
    O1  O  1.0000  0.461820  0.972770  0.665800  Uiso  0.007491
    O1  O  1.0000  0.947360  0.902150  0.665800  Uiso  0.007491
    O1  O  1.0000  0.801700  0.947930  0.665800  Uiso  0.007491
    O1  O  1.0000  0.656040  0.993720  0.665800  Uiso  0.007491
    O1  O  1.0000  0.995910  0.968880  0.665800  Uiso  0.007491
    O1  O  1.0000  0.096600  0.041500  0.512300  Uiso  0.014236
    O1  O  1.0000  0.436480  0.016660  0.512300  Uiso  0.014236
    O1  O  1.0000  0.290810  0.062450  0.512300  Uiso  0.014236
    O1  O  1.0000  0.145150  0.108240  0.512300  Uiso  0.014236
    O1  O  1.0000  0.630690  0.037610  0.512300  Uiso  0.014236
    O1  O  1.0000  0.485030  0.083400  0.512300  Uiso  0.014236
    O1  O  1.0000  0.339370  0.129180  0.512300  Uiso  0.014236
    O1  O  1.0000  0.193710  0.174970  0.512300  Uiso  0.014236
    O1  O  1.0000  0.048040  0.220750  0.512300  Uiso  0.014236
    O1  O  1.0000  0.970570  0.012770  0.512300  Uiso  0.014236
    O1  O  1.0000  0.824910  0.058560  0.512300  Uiso  0.014236
    O1  O  1.0000  0.679250  0.104340  0.512300  Uiso  0.014236
    O1  O  1.0000  0.533580  0.150130  0.512300  Uiso  0.014236
    O1  O  1.0000  0.387920  0.195910  0.512300  Uiso  0.014236
    O1  O  1.0000  0.242260  0.241700  0.512300  Uiso  0.014236
    O1  O  1.0000  0.096600  0.287490  0.512300  Uiso  0.014236
    O1  O  1.0000  0.873460  0.125290  0.512300  Uiso  0.014236
    O1  O  1.0000  0.727800  0.171070  0.512300  Uiso  0.014236
    O1  O  1.0000  0.582140  0.216860  0.512300  Uiso  0.014236
    O1  O  1.0000  0.436480  0.262650  0.512300  Uiso  0.014236
    O1  O  1.0000  0.290810  0.308430  0.512300  Uiso  0.014236
    O1  O  1.0000  0.145150  0.354220  0.512300  Uiso  0.014236
    O1  O  1.0000  0.922020  0.192020  0.512300  Uiso  0.014236
    O1  O  1.0000  0.776350  0.237810  0.512300  Uiso  0.014236
    O1  O  1.0000  0.630690  0.283590  0.512300  Uiso  0.014236
    O1  O  1.0000  0.485030  0.329380  0.512300  Uiso  0.014236
    O1  O  1.0000  0.339370  0.375160  0.512300  Uiso  0.014236
    O1  O  1.0000  0.193710  0.420950  0.512300  Uiso  0.014236
    O1  O  1.0000  0.048040  0.466740  0.512300  Uiso  0.014236
    O1  O  1.0000  0.970570  0.258750  0.512300  Uiso  0.014236
    O1  O  1.0000  0.824910  0.304540  0.512300  Uiso  0.014236
    O1  O  1.0000  0.679250  0.350320  0.512300  Uiso  0.014236
    O1  O  1.0000  0.533580  0.396110  0.512300  Uiso  0.014236
    O1  O  1.0000  0.387920  0.441900  0.512300  Uiso  0.014236
    O1  O  1.0000  0.242260  0.487680  0.512300  Uiso  0.014236
    O1  O  1.0000  0.096600  0.533470  0.512300  Uiso  0.014236
    O1  O  1.0000  0.873460  0.371270  0.512300  Uiso  0.014236
    O1  O  1.0000  0.727800  0.417060  0.512300  Uiso  0.014236
    O1  O  1.0000  0.582140  0.462840  0.512300  Uiso  0.014236
    O1  O  1.0000  0.436480  0.508630  0.512300  Uiso  0.014236
    O1  O  1.0000  0.290810  0.554410  0.512300  Uiso  0.014236
    O1  O  1.0000  0.145150  0.600200  0.512300  Uiso  0.014236
    O1  O  1.0000  0.922020  0.438000  0.512300  Uiso  0.014236
    O1  O  1.0000  0.776350  0.483790  0.512300  Uiso  0.014236
    O1  O  1.0000  0.630690  0.529570  0.512300  Uiso  0.014236
    O1  O  1.0000  0.485030  0.575360  0.512300  Uiso  0.014236
    O1  O  1.0000  0.339370  0.621150  0.512300  Uiso  0.014236
    O1  O  1.0000  0.193710  0.666930  0.512300  Uiso  0.014236
    O1  O  1.0000  0.048040  0.712720  0.512300  Uiso  0.014236
    O1  O  1.0000  0.970570  0.504730  0.512300  Uiso  0.014236
    O1  O  1.0000  0.824910  0.550520  0.512300  Uiso  0.014236
    O1  O  1.0000  0.679250  0.596310  0.512300  Uiso  0.014236
    O1  O  1.0000  0.533580  0.642090  0.512300  Uiso  0.014236
    O1  O  1.0000  0.387920  0.687880  0.512300  Uiso  0.014236
    O1  O  1.0000  0.242260  0.733660  0.512300  Uiso  0.014236
    O1  O  1.0000  0.096600  0.779450  0.512300  Uiso  0.014236
    O1  O  1.0000  0.873460  0.617250  0.512300  Uiso  0.014236
    O1  O  1.0000  0.727800  0.663040  0.512300  Uiso  0.014236
    O1  O  1.0000  0.582140  0.708820  0.512300  Uiso  0.014236
    O1  O  1.0000  0.436480  0.754610  0.512300  Uiso  0.014236
    O1  O  1.0000  0.290810  0.800400  0.512300  Uiso  0.014236
    O1  O  1.0000  0.145150  0.846180  0.512300  Uiso  0.014236
    O1  O  1.0000  0.922020  0.683980  0.512300  Uiso  0.014236
    O1  O  1.0000  0.776350  0.729770  0.512300  Uiso  0.014236
    O1  O  1.0000  0.630690  0.775560  0.512300  Uiso  0.014236
    O1  O  1.0000  0.485030  0.821340  0.512300  Uiso  0.014236
    O1  O  1.0000  0.339370  0.867130  0.512300  Uiso  0.014236
    O1  O  1.0000  0.193710  0.912910  0.512300  Uiso  0.014236
    O1  O  1.0000  0.048040  0.958700  0.512300  Uiso  0.014236
    O1  O  1.0000  0.970570  0.750720  0.512300  Uiso  0.014236
    O1  O  1.0000  0.824910  0.796500  0.512300  Uiso  0.014236
    O1  O  1.0000  0.679250  0.842290  0.512300  Uiso  0.014236
    O1  O  1.0000  0.533580  0.888070  0.512300  Uiso  0.014236
    O1  O  1.0000  0.387920  0.933860  0.512300  Uiso  0.014236
    O1  O  1.0000  0.242260  0.979640  0.512300  Uiso  0.014236
    O1  O  1.0000  0.873460  0.863230  0.512300  Uiso  0.014236
    O1  O  1.0000  0.727800  0.909020  0.512300  Uiso  0.014236
    O1  O  1.0000  0.582140  0.954800  0.512300  Uiso  0.014236
    O1  O  1.0000  0.922020  0.929960  0.512300  Uiso  0.014236
    O1  O  1.0000  0.776350  0.975750  0.512300  Uiso  0.014236
    O1  O  1.0000  0.970570  0.996700  0.512300  Uiso  0.014236
    O1  O  1.0000  0.250610  0.001360  0.791300  Uiso  0.011494
    O1  O  1.0000  0.104940  0.047150  0.791300  Uiso  0.011494
    O1  O  1.0000  0.444820  0.022310  0.791300  Uiso  0.011494
    O1  O  1.0000  0.299160  0.068090  0.791300  Uiso  0.011494
    O1  O  1.0000  0.153500  0.113880  0.791300  Uiso  0.011494
    O1  O  1.0000  0.007840  0.159660  0.791300  Uiso  0.011494
    O1  O  1.0000  0.639040  0.043250  0.791300  Uiso  0.011494
    O1  O  1.0000  0.493380  0.089040  0.791300  Uiso  0.011494
    O1  O  1.0000  0.347710  0.134820  0.791300  Uiso  0.011494
    O1  O  1.0000  0.202050  0.180610  0.791300  Uiso  0.011494
    O1  O  1.0000  0.056390  0.226400  0.791300  Uiso  0.011494
    O1  O  1.0000  0.978920  0.018410  0.791300  Uiso  0.011494
    O1  O  1.0000  0.833250  0.064200  0.791300  Uiso  0.011494
    O1  O  1.0000  0.687590  0.109980  0.791300  Uiso  0.011494
    O1  O  1.0000  0.541930  0.155770  0.791300  Uiso  0.011494
    O1  O  1.0000  0.396270  0.201560  0.791300  Uiso  0.011494
    O1  O  1.0000  0.250610  0.247340  0.791300  Uiso  0.011494
    O1  O  1.0000  0.104940  0.293130  0.791300  Uiso  0.011494
    O1  O  1.0000  0.881810  0.130930  0.791300  Uiso  0.011494
    O1  O  1.0000  0.736150  0.176720  0.791300  Uiso  0.011494
    O1  O  1.0000  0.590480  0.222500  0.791300  Uiso  0.011494
    O1  O  1.0000  0.444820  0.268290  0.791300  Uiso  0.011494
    O1  O  1.0000  0.299160  0.314070  0.791300  Uiso  0.011494
    O1  O  1.0000  0.153500  0.359860  0.791300  Uiso  0.011494
    O1  O  1.0000  0.007840  0.405650  0.791300  Uiso  0.011494
    O1  O  1.0000  0.930360  0.197660  0.791300  Uiso  0.011494
    O1  O  1.0000  0.784700  0.243450  0.791300  Uiso  0.011494
    O1  O  1.0000  0.639040  0.289230  0.791300  Uiso  0.011494
    O1  O  1.0000  0.493380  0.335020  0.791300  Uiso  0.011494
    O1  O  1.0000  0.347710  0.380800  0.791300  Uiso  0.011494
    O1  O  1.0000  0.202050  0.426590  0.791300  Uiso  0.011494
    O1  O  1.0000  0.056390  0.472380  0.791300  Uiso  0.011494
    O1  O  1.0000  0.978920  0.264390  0.791300  Uiso  0.011494
    O1  O  1.0000  0.833250  0.310180  0.791300  Uiso  0.011494
    O1  O  1.0000  0.687590  0.355960  0.791300  Uiso  0.011494
    O1  O  1.0000  0.541930  0.401750  0.791300  Uiso  0.011494
    O1  O  1.0000  0.396270  0.447540  0.791300  Uiso  0.011494
    O1  O  1.0000  0.250610  0.493320  0.791300  Uiso  0.011494
    O1  O  1.0000  0.104940  0.539110  0.791300  Uiso  0.011494
    O1  O  1.0000  0.881810  0.376910  0.791300  Uiso  0.011494
    O1  O  1.0000  0.736150  0.422700  0.791300  Uiso  0.011494
    O1  O  1.0000  0.590480  0.468480  0.791300  Uiso  0.011494
    O1  O  1.0000  0.444820  0.514270  0.791300  Uiso  0.011494
    O1  O  1.0000  0.299160  0.560050  0.791300  Uiso  0.011494
    O1  O  1.0000  0.153500  0.605840  0.791300  Uiso  0.011494
    O1  O  1.0000  0.007840  0.651630  0.791300  Uiso  0.011494
    O1  O  1.0000  0.930360  0.443640  0.791300  Uiso  0.011494
    O1  O  1.0000  0.784700  0.489430  0.791300  Uiso  0.011494
    O1  O  1.0000  0.639040  0.535210  0.791300  Uiso  0.011494
    O1  O  1.0000  0.493380  0.581000  0.791300  Uiso  0.011494
    O1  O  1.0000  0.347710  0.626790  0.791300  Uiso  0.011494
    O1  O  1.0000  0.202050  0.672570  0.791300  Uiso  0.011494
    O1  O  1.0000  0.056390  0.718360  0.791300  Uiso  0.011494
    O1  O  1.0000  0.978920  0.510370  0.791300  Uiso  0.011494
    O1  O  1.0000  0.833250  0.556160  0.791300  Uiso  0.011494
    O1  O  1.0000  0.687590  0.601950  0.791300  Uiso  0.011494
    O1  O  1.0000  0.541930  0.647730  0.791300  Uiso  0.011494
    O1  O  1.0000  0.396270  0.693520  0.791300  Uiso  0.011494
    O1  O  1.0000  0.250610  0.739300  0.791300  Uiso  0.011494
    O1  O  1.0000  0.104940  0.785090  0.791300  Uiso  0.011494
    O1  O  1.0000  0.881810  0.622890  0.791300  Uiso  0.011494
    O1  O  1.0000  0.736150  0.668680  0.791300  Uiso  0.011494
    O1  O  1.0000  0.590480  0.714460  0.791300  Uiso  0.011494
    O1  O  1.0000  0.444820  0.760250  0.791300  Uiso  0.011494
    O1  O  1.0000  0.299160  0.806040  0.791300  Uiso  0.011494
    O1  O  1.0000  0.153500  0.851820  0.791300  Uiso  0.011494
    O1  O  1.0000  0.007840  0.897610  0.791300  Uiso  0.011494
    O1  O  1.0000  0.930360  0.689620  0.791300  Uiso  0.011494
    O1  O  1.0000  0.784700  0.735410  0.791300  Uiso  0.011494
    O1  O  1.0000  0.639040  0.781200  0.791300  Uiso  0.011494
    O1  O  1.0000  0.493380  0.826980  0.791300  Uiso  0.011494
    O1  O  1.0000  0.347710  0.872770  0.791300  Uiso  0.011494
    O1  O  1.0000  0.202050  0.918550  0.791300  Uiso  0.011494
    O1  O  1.0000  0.056390  0.964340  0.791300  Uiso  0.011494
    O1  O  1.0000  0.978920  0.756360  0.791300  Uiso  0.011494
    O1  O  1.0000  0.833250  0.802140  0.791300  Uiso  0.011494
    O1  O  1.0000  0.687590  0.847930  0.791300  Uiso  0.011494
    O1  O  1.0000  0.541930  0.893710  0.791300  Uiso  0.011494
    O1  O  1.0000  0.396270  0.939500  0.791300  Uiso  0.011494
    O1  O  1.0000  0.250610  0.985290  0.791300  Uiso  0.011494
    O1  O  1.0000  0.881810  0.868870  0.791300  Uiso  0.011494
    O1  O  1.0000  0.736150  0.914660  0.791300  Uiso  0.011494
    O1  O  1.0000  0.590480  0.960450  0.791300  Uiso  0.011494
    O1  O  1.0000  0.930360  0.935610  0.791300  Uiso  0.011494
    O1  O  1.0000  0.784700  0.981390  0.791300  Uiso  0.011494

# End of data_CELSLC
